* NGSPICE file created from opamp.ext - technology: sky130A

.subckt sky130_fd_pr__nfet_01v8_lvt_A3UXRA a_3423_n1000# a_4623_1130# a_1743_1130#
+ a_3135_n1000# a_1503_n3218# a_n3297_1218# a_n4641_1218# a_1215_n3218# a_n1761_1218#
+ a_207_1130# a_n4161_n3218# a_n33_n3218# a_n3921_n1088# a_1119_1218# a_n2289_1022#
+ a_n3345_n1088# a_n3633_1022# a_4239_1130# a_1359_1130# a_3231_n1000# a_n4257_1218#
+ a_2703_1130# a_1311_n3218# a_n1377_1218# a_1023_n3218# a_n2721_1218# a_n465_3240#
+ a_n3249_1022# a_n1713_1022# a_n3153_n1088# a_2319_1130# a_n3969_n1000# a_n2337_1218#
+ a_n1329_1022# a_n4209_1022# a_n3777_n1000# a_n3489_n1000# a_n1857_n3218# a_n1569_n3218#
+ a_n609_n3218# a_n3873_n1000# a_n3585_n1000# a_n1953_n3218# a_n3297_n1000# a_n1665_n3218#
+ a_n1377_n3218# a_n1089_n3218# a_n705_n3218# a_n129_n3218# a_n417_n3218# a_n513_1218#
+ a_n3681_n1000# a_n3393_n1000# a_n1761_n3218# a_n1185_n3218# a_n1473_n3218# a_n753_1130#
+ a_3471_1022# a_n801_n3218# a_n513_n3218# a_4095_1218# a_n129_1218# a_n225_n3218#
+ a_n369_1130# a_3087_1022# a_4431_1022# a_n1281_n3218# a_1551_1022# a_n2385_3240#
+ a_n321_n3218# a_2175_1218# a_4047_1022# a_2799_n1196# a_1167_1022# a_2511_1022#
+ a_n3345_3240# a_3135_1218# a_2127_1022# a_n3393_1218# a_n4305_3240# a_n1425_3240#
+ a_1215_1218# a_2991_n1196# a_63_1218# a_n4353_1218# a_n1473_1218# a_n3729_n1196#
+ a_n4593_1130# a_n1089_1218# a_n2433_1218# a_15_1022# a_n3537_n1196# a_n2673_1130#
+ a_2895_n3306# a_4767_n3218# a_4479_n3218# a_n2049_1218# a_n3921_n1196# a_n4829_1218#
+ a_n2289_1130# a_n3345_n1196# a_n3633_1130# a_n561_1022# a_4575_n3218# a_4287_n3218#
+ a_n3009_1218# a_3183_3240# a_3759_n1088# a_n3249_1130# a_n177_1022# a_n3153_n1196#
+ a_111_3240# a_n1713_1130# a_4671_n3218# a_4383_n3218# a_4095_n3218# a_879_3240#
+ a_n3825_n3306# a_927_n3218# a_4143_3240# a_3567_n1088# a_n3249_n3306# a_639_n3218#
+ a_1263_3240# a_n4209_1130# a_n1329_1130# a_4191_n3218# a_4191_1218# a_n225_1218#
+ a_3951_n1088# a_n3633_n3306# a_735_n3218# a_2223_3240# a_n3057_n3306# a_447_n3218#
+ a_3375_n1088# a_159_n3218# a_2271_1218# a_n3441_n3306# a_831_n3218# a_543_n3218#
+ a_255_n3218# a_3183_n1088# a_3999_n1000# a_3231_1218# a_351_n3218# a_3471_1130#
+ a_3999_1218# a_n4305_n1088# a_927_1218# a_1887_n3218# a_1599_n3218# a_1311_1218#
+ a_n2481_1022# a_3087_1130# a_4431_1130# a_1551_1130# a_n4113_n1088# a_1983_n3218#
+ a_1695_n3218# a_n2097_1022# a_n3441_1022# a_63_n1000# a_4047_1130# a_2511_1130#
+ a_1167_1130# a_n1185_1218# a_n4065_1218# a_n273_3240# a_1791_n3218# a_n3057_1022#
+ a_n4737_n1000# a_n4401_1022# a_n1521_1022# a_n4449_n1000# a_n2817_n3218# a_2127_1130#
+ a_n2529_n3218# a_n2145_1218# a_n4017_1022# a_n1137_1022# a_n4545_n1000# a_n4257_n1000#
+ a_n2913_n3218# a_n2337_n3218# a_n2625_n3218# a_n3105_1218# a_n2049_n3218# a_n1809_n1088#
+ a_n4641_n1000# a_1407_n1000# a_n4353_n1000# a_1119_n1000# a_n2721_n3218# a_n4065_n1000#
+ a_n2433_n3218# a_n2145_n3218# a_15_1130# a_n1617_n1088# a_1503_n1000# a_1215_n1000#
+ a_n4161_n1000# a_n2241_n3218# a_n33_n1000# a_n321_1218# a_n897_n3218# a_n1425_n1088#
+ a_n561_1130# a_1023_n1000# a_1311_n1000# a_3759_n1196# a_975_1022# a_n993_n3218#
+ a_n177_1130# a_n1233_n1088# a_n2193_3240# a_3567_n1196# a_n1041_n1088# a_n3153_3240#
+ a_n1857_n1000# a_3951_n1196# a_n1569_n1000# a_3375_n1196# a_n609_n1000# a_n4113_3240#
+ a_639_1218# a_n1233_3240# a_n1953_n1000# a_n1665_n1000# a_n1377_n1000# a_1023_1218#
+ a_n1089_n1000# a_3183_n1196# a_n705_n1000# a_n417_n1000# a_n1281_1218# a_n4161_1218#
+ a_n129_n1000# a_3855_n3306# a_n1761_n1000# a_3279_n3306# a_n1473_n1000# a_n1185_n1000#
+ a_15_n3306# a_n801_n1000# a_n4305_n1196# a_n513_n1000# a_n225_n1000# a_n2241_1218#
+ a_3663_n3306# a_n2481_1130# a_n1281_n1000# a_3087_n3306# a_4719_n1088# a_n321_n1000#
+ a_n4113_n1196# a_n3201_1218# a_3471_n3306# a_n2097_1130# a_n3969_1218# a_n3441_1130#
+ a_4527_n1088# a_n4209_n3306# a_n3057_1130# a_n4401_1130# a_n1521_1130# a_4335_n1088#
+ a_n4017_n3306# a_687_3240# a_1071_3240# a_n4017_1130# a_n1137_1130# a_n4401_n3306#
+ a_4143_n1088# a_n1809_n1196# a_2031_3240# a_2799_3240# a_n1617_n1196# a_4479_n1000#
+ a_4767_n1000# a_2847_n3218# a_2559_n3218# a_3759_3240# a_n1425_n1196# a_n4689_n1088#
+ a_303_n1088# a_4575_n1000# a_2943_n3218# a_4719_3240# a_4287_n1000# a_2655_n3218#
+ a_1839_3240# a_2367_n3218# a_2079_n3218# a_735_1218# a_1839_n1088# a_n33_1218# a_n1233_n1196#
+ a_n4497_n1088# a_975_1130# a_111_n1088# a_4671_n1000# a_4767_1218# a_4383_n1000#
+ a_2751_n3218# a_1887_1218# a_927_n1000# a_4095_n1000# a_2463_n3218# a_639_n1000#
+ a_n1905_n3306# a_2175_n3218# a_n1329_n3306# a_1647_n1088# a_n1041_n1196# a_4191_n1000#
+ a_2847_1218# a_2271_n3218# a_447_n1000# a_735_n1000# a_n1713_n3306# a_159_n1000#
+ a_1455_n1088# a_n1137_n3306# a_n3009_n3218# a_3807_1218# a_831_n1000# a_543_n1000#
+ a_255_n1000# a_n1521_n3306# a_1263_n1088# a_n3105_n3218# a_n81_n1088# a_351_n1000#
+ a_1071_n1088# a_n3201_n3218# a_n81_3240# a_1599_n1000# a_1887_n1000# a_4719_n1196#
+ a_n849_3240# a_1983_n1000# a_1695_n1000# a_n849_n1088# a_n897_1218# a_4527_n1196#
+ a_1791_n1000# a_n2001_n1088# a_n657_n1088# a_783_1022# a_n2817_n1000# a_n2529_n1000#
+ a_4335_n1196# a_399_1022# a_n2913_n1000# a_n465_n1088# a_n2625_n1000# a_n2337_n1000#
+ a_n2049_n1000# a_4143_n1196# a_831_1218# a_2895_1022# a_n273_n1088# a_n2721_n1000#
+ a_n2433_n1000# a_4239_n3306# a_1983_1218# a_n2145_n1000# a_n1041_3240# a_447_1218#
+ a_3855_1022# a_n4689_3240# a_4623_n3306# a_4479_1218# a_1599_1218# a_4047_n3306#
+ a_2943_1218# a_n2241_n1000# a_n2001_3240# a_n4689_n1196# a_n897_n1000# a_303_n1196#
+ a_1935_1022# a_n2769_3240# a_4431_n3306# a_3903_1218# a_2559_1218# a_1839_n1196#
+ a_n993_n1000# a_n4497_n1196# a_n3729_3240# a_111_n1196# a_3519_1218# a_1647_n1196#
+ a_207_n3306# a_n3777_1218# a_n1809_3240# a_1455_n1196# a_n4829_n3218# a_n4737_1218#
+ a_n1857_1218# a_495_3240# a_n4785_n3306# a_1263_n1196# a_n2817_1218# a_n993_1218#
+ a_2991_3240# a_n81_n1196# a_1935_n3306# a_3807_n3218# a_n4593_n3306# a_1359_n3306#
+ a_3519_n3218# a_1071_n1196# a_879_n1088# a_3951_3240# a_1743_n3306# a_n945_1022#
+ a_3903_n3218# a_3615_n3218# a_1167_n3306# a_3327_n3218# a_3039_n3218# a_3567_3240#
+ a_687_n1088# a_n849_n1196# a_1551_n3306# a_3711_n3218# a_3423_n3218# a_3135_n3218#
+ a_4527_3240# a_2607_n1088# a_1647_3240# a_495_n1088# a_n2001_n1196# a_543_1218#
+ a_n657_n1196# a_783_1130# a_3231_n3218# a_4575_1218# a_1695_1218# a_n609_1218# a_2415_n1088#
+ a_2607_3240# a_159_1218# a_399_1130# a_n465_n1196# a_n3969_n3218# a_2655_1218# a_2223_n1088#
+ a_2895_1130# a_n273_n1196# a_3615_1218# a_n3489_n3218# a_n3777_n3218# a_n4785_1022#
+ a_2031_n1088# a_n945_n3306# a_3855_1130# a_2847_n1000# a_n369_n3306# a_n3873_1218#
+ a_2559_n1000# a_n3873_n3218# a_n2865_1022# a_n3585_n3218# a_n3297_n3218# a_n2769_n1088#
+ a_1935_1130# a_n753_n3306# a_n3489_1218# a_2655_n1000# a_2943_n1000# a_n177_n3306#
+ a_n1953_1218# a_2367_n1000# a_2079_n1000# a_n3681_n3218# a_n3393_n3218# a_n3825_1022#
+ a_n4449_1218# a_n2577_n1088# a_n561_n3306# a_n1569_1218# a_n2913_1218# a_n657_3240#
+ a_2751_n1000# a_2175_n1000# a_2463_n1000# a_n1905_1022# a_n2961_n1088# a_n2529_1218#
+ a_n2385_n1088# a_2271_n1000# a_n3009_n1000# a_591_1022# a_n2193_n1088# a_n3105_n1000#
+ a_n3201_n1000# a_879_n1196# a_4671_1218# a_1791_1218# a_n705_1218# a_255_1218# a_n945_1130#
+ a_3663_1022# a_n4497_3240# a_n2961_3240# a_4287_1218# a_687_n1196# a_2751_1218#
+ a_3279_1022# a_4623_1022# a_1743_1022# a_n2577_3240# a_n3921_3240# a_207_1022# a_2607_n1196#
+ a_2367_1218# a_495_n1196# a_3711_1218# a_4239_1022# a_1359_1022# a_2703_1022# a_n3537_3240#
+ a_2415_n1196# a_3327_1218# a_2319_1022# a_n3585_1218# a_975_n3306# a_n1617_3240#
+ a_399_n3306# a_2223_n1196# a_1407_1218# a_n4545_1218# a_n1665_1218# a_783_n3306#
+ a_2319_n3306# a_n4785_1130# a_2031_n1196# a_2703_n3306# a_n2625_1218# a_591_n3306#
+ a_2127_n3306# a_n2865_1130# a_n2769_n1196# a_3999_n3218# a_2511_n3306# a_n3825_1130#
+ a_n753_1022# a_n2577_n1196# a_3375_3240# a_n369_1022# a_303_3240# a_n1905_1130#
+ a_n2961_n1196# a_n2385_n1196# a_n801_1218# a_4335_3240# a_1455_3240# a_351_1218#
+ a_n4829_n1000# a_2799_n1088# a_63_n3218# a_591_1130# a_n2193_n1196# a_4383_1218#
+ a_n417_1218# a_2415_3240# a_n2865_n3306# a_n4737_n3218# a_n2289_n3306# a_n4449_n3218#
+ a_2463_1218# a_3807_n1000# a_3519_n1000# a_n2673_n3306# a_2991_n1088# a_n4545_n3218#
+ a_n2097_n3306# a_n4257_n3218# a_2079_1218# a_n3729_n1088# a_n4593_1022# a_3423_1218#
+ a_3903_n1000# a_3327_n1000# a_3615_n1000# a_3663_1130# a_3039_n1000# a_1407_n3218#
+ VSUBS a_n2481_n3306# a_n4641_n3218# a_1119_n3218# a_n3681_1218# a_n4065_n3218# a_n4353_n3218#
+ a_3039_1218# a_n3537_n1088# a_1503_1218# a_n2673_1022# a_3711_n1000# a_3279_1130#
X0 a_n321_1218# a_n369_1130# a_n417_1218# VSUBS sky130_fd_pr__nfet_01v8_lvt ad=1.65 pd=10.3 as=1.65 ps=10.3 w=10 l=0.15
X1 a_2463_n1000# a_2415_n1088# a_2367_n1000# VSUBS sky130_fd_pr__nfet_01v8_lvt ad=1.65 pd=10.3 as=1.65 ps=10.3 w=10 l=0.15
X2 a_n2529_1218# a_n2577_3240# a_n2625_1218# VSUBS sky130_fd_pr__nfet_01v8_lvt ad=1.65 pd=10.3 as=1.65 ps=10.3 w=10 l=0.15
X3 a_3135_n3218# a_3087_n3306# a_3039_n3218# VSUBS sky130_fd_pr__nfet_01v8_lvt ad=1.65 pd=10.3 as=1.65 ps=10.3 w=10 l=0.15
X4 a_1119_n3218# a_1071_n1196# a_1023_n3218# VSUBS sky130_fd_pr__nfet_01v8_lvt ad=1.65 pd=10.3 as=1.65 ps=10.3 w=10 l=0.15
X5 a_3519_1218# a_3471_1130# a_3423_1218# VSUBS sky130_fd_pr__nfet_01v8_lvt ad=1.65 pd=10.3 as=1.65 ps=10.3 w=10 l=0.15
X6 a_3135_n1000# a_3087_1022# a_3039_n1000# VSUBS sky130_fd_pr__nfet_01v8_lvt ad=1.65 pd=10.3 as=1.65 ps=10.3 w=10 l=0.15
X7 a_n4641_1218# a_n4689_3240# a_n4737_1218# VSUBS sky130_fd_pr__nfet_01v8_lvt ad=1.65 pd=10.3 as=1.65 ps=10.3 w=10 l=0.15
X8 a_1503_1218# a_1455_3240# a_1407_1218# VSUBS sky130_fd_pr__nfet_01v8_lvt ad=1.65 pd=10.3 as=1.65 ps=10.3 w=10 l=0.15
X9 a_n4257_n1000# a_n4305_n1088# a_n4353_n1000# VSUBS sky130_fd_pr__nfet_01v8_lvt ad=1.65 pd=10.3 as=1.65 ps=10.3 w=10 l=0.15
X10 a_1119_n1000# a_1071_n1088# a_1023_n1000# VSUBS sky130_fd_pr__nfet_01v8_lvt ad=1.65 pd=10.3 as=1.65 ps=10.3 w=10 l=0.15
X11 a_n129_n3218# a_n177_n3306# a_n225_n3218# VSUBS sky130_fd_pr__nfet_01v8_lvt ad=1.65 pd=10.3 as=1.65 ps=10.3 w=10 l=0.15
X12 a_543_1218# a_495_3240# a_447_1218# VSUBS sky130_fd_pr__nfet_01v8_lvt ad=1.65 pd=10.3 as=1.65 ps=10.3 w=10 l=0.15
X13 a_159_n1000# a_111_n1088# a_63_n1000# VSUBS sky130_fd_pr__nfet_01v8_lvt ad=1.65 pd=10.3 as=1.65 ps=10.3 w=10 l=0.15
X14 a_1599_n3218# a_1551_n3306# a_1503_n3218# VSUBS sky130_fd_pr__nfet_01v8_lvt ad=1.65 pd=10.3 as=1.65 ps=10.3 w=10 l=0.15
X15 a_447_n3218# a_399_n3306# a_351_n3218# VSUBS sky130_fd_pr__nfet_01v8_lvt ad=1.65 pd=10.3 as=1.65 ps=10.3 w=10 l=0.15
X16 a_n1185_1218# a_n1233_3240# a_n1281_1218# VSUBS sky130_fd_pr__nfet_01v8_lvt ad=1.65 pd=10.3 as=1.65 ps=10.3 w=10 l=0.15
X17 a_n2241_n1000# a_n2289_1022# a_n2337_n1000# VSUBS sky130_fd_pr__nfet_01v8_lvt ad=1.65 pd=10.3 as=1.65 ps=10.3 w=10 l=0.15
X18 a_2175_1218# a_2127_1130# a_2079_1218# VSUBS sky130_fd_pr__nfet_01v8_lvt ad=1.65 pd=10.3 as=1.65 ps=10.3 w=10 l=0.15
X19 a_n3777_n1000# a_n3825_1022# a_n3873_n1000# VSUBS sky130_fd_pr__nfet_01v8_lvt ad=1.65 pd=10.3 as=1.65 ps=10.3 w=10 l=0.15
X20 a_2175_n3218# a_2127_n3306# a_2079_n3218# VSUBS sky130_fd_pr__nfet_01v8_lvt ad=1.65 pd=10.3 as=1.65 ps=10.3 w=10 l=0.15
X21 a_n609_n3218# a_n657_n1196# a_n705_n3218# VSUBS sky130_fd_pr__nfet_01v8_lvt ad=1.65 pd=10.3 as=1.65 ps=10.3 w=10 l=0.15
X22 a_4767_n1000# a_4719_n1088# a_4671_n1000# VSUBS sky130_fd_pr__nfet_01v8_lvt ad=3.1 pd=20.6 as=1.65 ps=10.3 w=10 l=0.15
X23 a_n1089_n3218# a_n1137_n3306# a_n1185_n3218# VSUBS sky130_fd_pr__nfet_01v8_lvt ad=1.65 pd=10.3 as=1.65 ps=10.3 w=10 l=0.15
X24 a_n2817_1218# a_n2865_1130# a_n2913_1218# VSUBS sky130_fd_pr__nfet_01v8_lvt ad=1.65 pd=10.3 as=1.65 ps=10.3 w=10 l=0.15
X25 a_n225_n1000# a_n273_n1088# a_n321_n1000# VSUBS sky130_fd_pr__nfet_01v8_lvt ad=1.65 pd=10.3 as=1.65 ps=10.3 w=10 l=0.15
X26 a_2751_n1000# a_2703_1022# a_2655_n1000# VSUBS sky130_fd_pr__nfet_01v8_lvt ad=1.65 pd=10.3 as=1.65 ps=10.3 w=10 l=0.15
X27 a_4287_n3218# a_4239_n3306# a_4191_n3218# VSUBS sky130_fd_pr__nfet_01v8_lvt ad=1.65 pd=10.3 as=1.65 ps=10.3 w=10 l=0.15
X28 a_3807_1218# a_3759_3240# a_3711_1218# VSUBS sky130_fd_pr__nfet_01v8_lvt ad=1.65 pd=10.3 as=1.65 ps=10.3 w=10 l=0.15
X29 a_2655_n3218# a_2607_n1196# a_2559_n3218# VSUBS sky130_fd_pr__nfet_01v8_lvt ad=1.65 pd=10.3 as=1.65 ps=10.3 w=10 l=0.15
X30 a_n3489_1218# a_n3537_3240# a_n3585_1218# VSUBS sky130_fd_pr__nfet_01v8_lvt ad=1.65 pd=10.3 as=1.65 ps=10.3 w=10 l=0.15
X31 a_1791_1218# a_1743_1130# a_1695_1218# VSUBS sky130_fd_pr__nfet_01v8_lvt ad=1.65 pd=10.3 as=1.65 ps=10.3 w=10 l=0.15
X32 a_1215_n3218# a_1167_n3306# a_1119_n3218# VSUBS sky130_fd_pr__nfet_01v8_lvt ad=1.65 pd=10.3 as=1.65 ps=10.3 w=10 l=0.15
X33 a_831_1218# a_783_1130# a_735_1218# VSUBS sky130_fd_pr__nfet_01v8_lvt ad=1.65 pd=10.3 as=1.65 ps=10.3 w=10 l=0.15
X34 a_4479_1218# a_4431_1130# a_4383_1218# VSUBS sky130_fd_pr__nfet_01v8_lvt ad=1.65 pd=10.3 as=1.65 ps=10.3 w=10 l=0.15
X35 a_n4545_n1000# a_n4593_1022# a_n4641_n1000# VSUBS sky130_fd_pr__nfet_01v8_lvt ad=1.65 pd=10.3 as=1.65 ps=10.3 w=10 l=0.15
X36 a_1407_n1000# a_1359_1022# a_1311_n1000# VSUBS sky130_fd_pr__nfet_01v8_lvt ad=1.65 pd=10.3 as=1.65 ps=10.3 w=10 l=0.15
X37 a_4767_n3218# a_4719_n1196# a_4671_n3218# VSUBS sky130_fd_pr__nfet_01v8_lvt ad=3.1 pd=20.6 as=1.65 ps=10.3 w=10 l=0.15
X38 a_3231_n3218# a_3183_n1196# a_3135_n3218# VSUBS sky130_fd_pr__nfet_01v8_lvt ad=1.65 pd=10.3 as=1.65 ps=10.3 w=10 l=0.15
X39 a_n1473_1218# a_n1521_1130# a_n1569_1218# VSUBS sky130_fd_pr__nfet_01v8_lvt ad=1.65 pd=10.3 as=1.65 ps=10.3 w=10 l=0.15
X40 a_447_n1000# a_399_1022# a_351_n1000# VSUBS sky130_fd_pr__nfet_01v8_lvt ad=1.65 pd=10.3 as=1.65 ps=10.3 w=10 l=0.15
X41 a_2463_1218# a_2415_3240# a_2367_1218# VSUBS sky130_fd_pr__nfet_01v8_lvt ad=1.65 pd=10.3 as=1.65 ps=10.3 w=10 l=0.15
X42 a_n1089_n1000# a_n1137_1022# a_n1185_n1000# VSUBS sky130_fd_pr__nfet_01v8_lvt ad=1.65 pd=10.3 as=1.65 ps=10.3 w=10 l=0.15
X43 a_3327_n3218# a_3279_n3306# a_3231_n3218# VSUBS sky130_fd_pr__nfet_01v8_lvt ad=1.65 pd=10.3 as=1.65 ps=10.3 w=10 l=0.15
X44 a_2079_n1000# a_2031_n1088# a_1983_n1000# VSUBS sky130_fd_pr__nfet_01v8_lvt ad=1.65 pd=10.3 as=1.65 ps=10.3 w=10 l=0.15
X45 a_1695_n3218# a_1647_n1196# a_1599_n3218# VSUBS sky130_fd_pr__nfet_01v8_lvt ad=1.65 pd=10.3 as=1.65 ps=10.3 w=10 l=0.15
X46 a_n225_n3218# a_n273_n1196# a_n321_n3218# VSUBS sky130_fd_pr__nfet_01v8_lvt ad=1.65 pd=10.3 as=1.65 ps=10.3 w=10 l=0.15
X47 a_543_n3218# a_495_n1196# a_447_n3218# VSUBS sky130_fd_pr__nfet_01v8_lvt ad=1.65 pd=10.3 as=1.65 ps=10.3 w=10 l=0.15
X48 a_3135_1218# a_3087_1130# a_3039_1218# VSUBS sky130_fd_pr__nfet_01v8_lvt ad=1.65 pd=10.3 as=1.65 ps=10.3 w=10 l=0.15
X49 a_n3201_n1000# a_n3249_1022# a_n3297_n1000# VSUBS sky130_fd_pr__nfet_01v8_lvt ad=1.65 pd=10.3 as=1.65 ps=10.3 w=10 l=0.15
X50 a_n4257_1218# a_n4305_3240# a_n4353_1218# VSUBS sky130_fd_pr__nfet_01v8_lvt ad=1.65 pd=10.3 as=1.65 ps=10.3 w=10 l=0.15
X51 a_1119_1218# a_1071_3240# a_1023_1218# VSUBS sky130_fd_pr__nfet_01v8_lvt ad=1.65 pd=10.3 as=1.65 ps=10.3 w=10 l=0.15
X52 a_4191_n1000# a_4143_n1088# a_4095_n1000# VSUBS sky130_fd_pr__nfet_01v8_lvt ad=1.65 pd=10.3 as=1.65 ps=10.3 w=10 l=0.15
X53 a_3807_n3218# a_3759_n1196# a_3711_n3218# VSUBS sky130_fd_pr__nfet_01v8_lvt ad=1.65 pd=10.3 as=1.65 ps=10.3 w=10 l=0.15
X54 a_2271_n3218# a_2223_n1196# a_2175_n3218# VSUBS sky130_fd_pr__nfet_01v8_lvt ad=1.65 pd=10.3 as=1.65 ps=10.3 w=10 l=0.15
X55 a_159_1218# a_111_3240# a_63_1218# VSUBS sky130_fd_pr__nfet_01v8_lvt ad=1.65 pd=10.3 as=1.65 ps=10.3 w=10 l=0.15
X56 a_n513_n1000# a_n561_1022# a_n609_n1000# VSUBS sky130_fd_pr__nfet_01v8_lvt ad=1.65 pd=10.3 as=1.65 ps=10.3 w=10 l=0.15
X57 a_n705_n3218# a_n753_n3306# a_n801_n3218# VSUBS sky130_fd_pr__nfet_01v8_lvt ad=1.65 pd=10.3 as=1.65 ps=10.3 w=10 l=0.15
X58 a_n2241_1218# a_n2289_1130# a_n2337_1218# VSUBS sky130_fd_pr__nfet_01v8_lvt ad=1.65 pd=10.3 as=1.65 ps=10.3 w=10 l=0.15
X59 a_n1185_n3218# a_n1233_n1196# a_n1281_n3218# VSUBS sky130_fd_pr__nfet_01v8_lvt ad=1.65 pd=10.3 as=1.65 ps=10.3 w=10 l=0.15
X60 a_63_n1000# a_15_1022# a_n33_n1000# VSUBS sky130_fd_pr__nfet_01v8_lvt ad=1.65 pd=10.3 as=1.65 ps=10.3 w=10 l=0.15
X61 a_4383_n3218# a_4335_n1196# a_4287_n3218# VSUBS sky130_fd_pr__nfet_01v8_lvt ad=1.65 pd=10.3 as=1.65 ps=10.3 w=10 l=0.15
X62 a_n3777_1218# a_n3825_1130# a_n3873_1218# VSUBS sky130_fd_pr__nfet_01v8_lvt ad=1.65 pd=10.3 as=1.65 ps=10.3 w=10 l=0.15
X63 a_1695_n1000# a_1647_n1088# a_1599_n1000# VSUBS sky130_fd_pr__nfet_01v8_lvt ad=1.65 pd=10.3 as=1.65 ps=10.3 w=10 l=0.15
X64 a_2751_n3218# a_2703_n3306# a_2655_n3218# VSUBS sky130_fd_pr__nfet_01v8_lvt ad=1.65 pd=10.3 as=1.65 ps=10.3 w=10 l=0.15
X65 a_4767_1218# a_4719_3240# a_4671_1218# VSUBS sky130_fd_pr__nfet_01v8_lvt ad=3.1 pd=20.6 as=1.65 ps=10.3 w=10 l=0.15
X66 a_735_n1000# a_687_n1088# a_639_n1000# VSUBS sky130_fd_pr__nfet_01v8_lvt ad=1.65 pd=10.3 as=1.65 ps=10.3 w=10 l=0.15
X67 a_n3297_n3218# a_n3345_n1196# a_n3393_n3218# VSUBS sky130_fd_pr__nfet_01v8_lvt ad=1.65 pd=10.3 as=1.65 ps=10.3 w=10 l=0.15
X68 a_n1377_n1000# a_n1425_n1088# a_n1473_n1000# VSUBS sky130_fd_pr__nfet_01v8_lvt ad=1.65 pd=10.3 as=1.65 ps=10.3 w=10 l=0.15
X69 a_n225_1218# a_n273_3240# a_n321_1218# VSUBS sky130_fd_pr__nfet_01v8_lvt ad=1.65 pd=10.3 as=1.65 ps=10.3 w=10 l=0.15
X70 a_2751_1218# a_2703_1130# a_2655_1218# VSUBS sky130_fd_pr__nfet_01v8_lvt ad=1.65 pd=10.3 as=1.65 ps=10.3 w=10 l=0.15
X71 a_2367_n1000# a_2319_1022# a_2271_n1000# VSUBS sky130_fd_pr__nfet_01v8_lvt ad=1.65 pd=10.3 as=1.65 ps=10.3 w=10 l=0.15
X72 a_1311_n3218# a_1263_n1196# a_1215_n3218# VSUBS sky130_fd_pr__nfet_01v8_lvt ad=1.65 pd=10.3 as=1.65 ps=10.3 w=10 l=0.15
X73 a_n3777_n3218# a_n3825_n3306# a_n3873_n3218# VSUBS sky130_fd_pr__nfet_01v8_lvt ad=1.65 pd=10.3 as=1.65 ps=10.3 w=10 l=0.15
X74 a_3039_n1000# a_2991_n1088# a_2943_n1000# VSUBS sky130_fd_pr__nfet_01v8_lvt ad=1.65 pd=10.3 as=1.65 ps=10.3 w=10 l=0.15
X75 a_3423_n3218# a_3375_n1196# a_3327_n3218# VSUBS sky130_fd_pr__nfet_01v8_lvt ad=1.65 pd=10.3 as=1.65 ps=10.3 w=10 l=0.15
X76 a_n321_n3218# a_n369_n3306# a_n417_n3218# VSUBS sky130_fd_pr__nfet_01v8_lvt ad=1.65 pd=10.3 as=1.65 ps=10.3 w=10 l=0.15
X77 a_n4545_1218# a_n4593_1130# a_n4641_1218# VSUBS sky130_fd_pr__nfet_01v8_lvt ad=1.65 pd=10.3 as=1.65 ps=10.3 w=10 l=0.15
X78 a_1407_1218# a_1359_1130# a_1311_1218# VSUBS sky130_fd_pr__nfet_01v8_lvt ad=1.65 pd=10.3 as=1.65 ps=10.3 w=10 l=0.15
X79 a_n801_n1000# a_n849_n1088# a_n897_n1000# VSUBS sky130_fd_pr__nfet_01v8_lvt ad=1.65 pd=10.3 as=1.65 ps=10.3 w=10 l=0.15
X80 a_1791_n3218# a_1743_n3306# a_1695_n3218# VSUBS sky130_fd_pr__nfet_01v8_lvt ad=1.65 pd=10.3 as=1.65 ps=10.3 w=10 l=0.15
X81 a_n2337_n3218# a_n2385_n1196# a_n2433_n3218# VSUBS sky130_fd_pr__nfet_01v8_lvt ad=1.65 pd=10.3 as=1.65 ps=10.3 w=10 l=0.15
X82 a_447_1218# a_399_1130# a_351_1218# VSUBS sky130_fd_pr__nfet_01v8_lvt ad=1.65 pd=10.3 as=1.65 ps=10.3 w=10 l=0.15
X83 a_n1089_1218# a_n1137_1130# a_n1185_1218# VSUBS sky130_fd_pr__nfet_01v8_lvt ad=1.65 pd=10.3 as=1.65 ps=10.3 w=10 l=0.15
X84 a_n2145_n1000# a_n2193_n1088# a_n2241_n1000# VSUBS sky130_fd_pr__nfet_01v8_lvt ad=1.65 pd=10.3 as=1.65 ps=10.3 w=10 l=0.15
X85 a_3999_n1000# a_3951_n1088# a_3903_n1000# VSUBS sky130_fd_pr__nfet_01v8_lvt ad=1.65 pd=10.3 as=1.65 ps=10.3 w=10 l=0.15
X86 a_2079_1218# a_2031_3240# a_1983_1218# VSUBS sky130_fd_pr__nfet_01v8_lvt ad=1.65 pd=10.3 as=1.65 ps=10.3 w=10 l=0.15
X87 a_n4449_n3218# a_n4497_n1196# a_n4545_n3218# VSUBS sky130_fd_pr__nfet_01v8_lvt ad=1.65 pd=10.3 as=1.65 ps=10.3 w=10 l=0.15
X88 a_3903_n3218# a_3855_n3306# a_3807_n3218# VSUBS sky130_fd_pr__nfet_01v8_lvt ad=1.65 pd=10.3 as=1.65 ps=10.3 w=10 l=0.15
X89 a_n801_n3218# a_n849_n1196# a_n897_n3218# VSUBS sky130_fd_pr__nfet_01v8_lvt ad=1.65 pd=10.3 as=1.65 ps=10.3 w=10 l=0.15
X90 a_1983_n1000# a_1935_1022# a_1887_n1000# VSUBS sky130_fd_pr__nfet_01v8_lvt ad=1.65 pd=10.3 as=1.65 ps=10.3 w=10 l=0.15
X91 a_n1281_n3218# a_n1329_n3306# a_n1377_n3218# VSUBS sky130_fd_pr__nfet_01v8_lvt ad=1.65 pd=10.3 as=1.65 ps=10.3 w=10 l=0.15
X92 a_n2817_n3218# a_n2865_n3306# a_n2913_n3218# VSUBS sky130_fd_pr__nfet_01v8_lvt ad=1.65 pd=10.3 as=1.65 ps=10.3 w=10 l=0.15
X93 a_n3201_1218# a_n3249_1130# a_n3297_1218# VSUBS sky130_fd_pr__nfet_01v8_lvt ad=1.65 pd=10.3 as=1.65 ps=10.3 w=10 l=0.15
X94 a_4191_1218# a_4143_3240# a_4095_1218# VSUBS sky130_fd_pr__nfet_01v8_lvt ad=1.65 pd=10.3 as=1.65 ps=10.3 w=10 l=0.15
X95 a_n513_1218# a_n561_1130# a_n609_1218# VSUBS sky130_fd_pr__nfet_01v8_lvt ad=1.65 pd=10.3 as=1.65 ps=10.3 w=10 l=0.15
X96 a_n129_n1000# a_n177_1022# a_n225_n1000# VSUBS sky130_fd_pr__nfet_01v8_lvt ad=1.65 pd=10.3 as=1.65 ps=10.3 w=10 l=0.15
X97 a_2655_n1000# a_2607_n1088# a_2559_n1000# VSUBS sky130_fd_pr__nfet_01v8_lvt ad=1.65 pd=10.3 as=1.65 ps=10.3 w=10 l=0.15
X98 a_n3393_n3218# a_n3441_n3306# a_n3489_n3218# VSUBS sky130_fd_pr__nfet_01v8_lvt ad=1.65 pd=10.3 as=1.65 ps=10.3 w=10 l=0.15
X99 a_63_1218# a_15_1130# a_n33_1218# VSUBS sky130_fd_pr__nfet_01v8_lvt ad=1.65 pd=10.3 as=1.65 ps=10.3 w=10 l=0.15
X100 a_1695_1218# a_1647_3240# a_1599_1218# VSUBS sky130_fd_pr__nfet_01v8_lvt ad=1.65 pd=10.3 as=1.65 ps=10.3 w=10 l=0.15
X101 a_n1761_n1000# a_n1809_n1088# a_n1857_n1000# VSUBS sky130_fd_pr__nfet_01v8_lvt ad=1.65 pd=10.3 as=1.65 ps=10.3 w=10 l=0.15
X102 a_735_1218# a_687_3240# a_639_1218# VSUBS sky130_fd_pr__nfet_01v8_lvt ad=1.65 pd=10.3 as=1.65 ps=10.3 w=10 l=0.15
X103 a_n4449_n1000# a_n4497_n1088# a_n4545_n1000# VSUBS sky130_fd_pr__nfet_01v8_lvt ad=1.65 pd=10.3 as=1.65 ps=10.3 w=10 l=0.15
X104 a_n1857_n3218# a_n1905_n3306# a_n1953_n3218# VSUBS sky130_fd_pr__nfet_01v8_lvt ad=1.65 pd=10.3 as=1.65 ps=10.3 w=10 l=0.15
X105 a_n3873_n3218# a_n3921_n1196# a_n3969_n3218# VSUBS sky130_fd_pr__nfet_01v8_lvt ad=1.65 pd=10.3 as=1.65 ps=10.3 w=10 l=0.15
X106 a_n1377_1218# a_n1425_3240# a_n1473_1218# VSUBS sky130_fd_pr__nfet_01v8_lvt ad=1.65 pd=10.3 as=1.65 ps=10.3 w=10 l=0.15
X107 a_2367_1218# a_2319_1130# a_2271_1218# VSUBS sky130_fd_pr__nfet_01v8_lvt ad=1.65 pd=10.3 as=1.65 ps=10.3 w=10 l=0.15
X108 a_n2433_n1000# a_n2481_1022# a_n2529_n1000# VSUBS sky130_fd_pr__nfet_01v8_lvt ad=1.65 pd=10.3 as=1.65 ps=10.3 w=10 l=0.15
X109 a_n4065_n3218# a_n4113_n1196# a_n4161_n3218# VSUBS sky130_fd_pr__nfet_01v8_lvt ad=1.65 pd=10.3 as=1.65 ps=10.3 w=10 l=0.15
X110 a_3423_n1000# a_3375_n1088# a_3327_n1000# VSUBS sky130_fd_pr__nfet_01v8_lvt ad=1.65 pd=10.3 as=1.65 ps=10.3 w=10 l=0.15
X111 a_n2433_n3218# a_n2481_n3306# a_n2529_n3218# VSUBS sky130_fd_pr__nfet_01v8_lvt ad=1.65 pd=10.3 as=1.65 ps=10.3 w=10 l=0.15
X112 a_n3969_n3218# a_n4017_n3306# a_n4065_n3218# VSUBS sky130_fd_pr__nfet_01v8_lvt ad=1.65 pd=10.3 as=1.65 ps=10.3 w=10 l=0.15
X113 a_3039_1218# a_2991_3240# a_2943_1218# VSUBS sky130_fd_pr__nfet_01v8_lvt ad=1.65 pd=10.3 as=1.65 ps=10.3 w=10 l=0.15
X114 a_n3105_n1000# a_n3153_n1088# a_n3201_n1000# VSUBS sky130_fd_pr__nfet_01v8_lvt ad=1.65 pd=10.3 as=1.65 ps=10.3 w=10 l=0.15
X115 a_n801_1218# a_n849_3240# a_n897_1218# VSUBS sky130_fd_pr__nfet_01v8_lvt ad=1.65 pd=10.3 as=1.65 ps=10.3 w=10 l=0.15
X116 a_2943_n1000# a_2895_1022# a_2847_n1000# VSUBS sky130_fd_pr__nfet_01v8_lvt ad=1.65 pd=10.3 as=1.65 ps=10.3 w=10 l=0.15
X117 a_4095_n1000# a_4047_1022# a_3999_n1000# VSUBS sky130_fd_pr__nfet_01v8_lvt ad=1.65 pd=10.3 as=1.65 ps=10.3 w=10 l=0.15
X118 a_n4545_n3218# a_n4593_n3306# a_n4641_n3218# VSUBS sky130_fd_pr__nfet_01v8_lvt ad=1.65 pd=10.3 as=1.65 ps=10.3 w=10 l=0.15
X119 a_n417_n1000# a_n465_n1088# a_n513_n1000# VSUBS sky130_fd_pr__nfet_01v8_lvt ad=1.65 pd=10.3 as=1.65 ps=10.3 w=10 l=0.15
X120 a_n2913_n3218# a_n2961_n1196# a_n3009_n3218# VSUBS sky130_fd_pr__nfet_01v8_lvt ad=1.65 pd=10.3 as=1.65 ps=10.3 w=10 l=0.15
X121 a_n2145_1218# a_n2193_3240# a_n2241_1218# VSUBS sky130_fd_pr__nfet_01v8_lvt ad=1.65 pd=10.3 as=1.65 ps=10.3 w=10 l=0.15
X122 a_3999_1218# a_3951_3240# a_3903_1218# VSUBS sky130_fd_pr__nfet_01v8_lvt ad=1.65 pd=10.3 as=1.65 ps=10.3 w=10 l=0.15
X123 a_1983_1218# a_1935_1130# a_1887_1218# VSUBS sky130_fd_pr__nfet_01v8_lvt ad=1.65 pd=10.3 as=1.65 ps=10.3 w=10 l=0.15
X124 a_n4737_n1000# a_n4785_1022# a_n4829_n1000# VSUBS sky130_fd_pr__nfet_01v8_lvt ad=1.65 pd=10.3 as=3.1 ps=20.6 w=10 l=0.15
X125 a_1599_n1000# a_1551_1022# a_1503_n1000# VSUBS sky130_fd_pr__nfet_01v8_lvt ad=1.65 pd=10.3 as=1.65 ps=10.3 w=10 l=0.15
X126 a_n2721_n1000# a_n2769_n1088# a_n2817_n1000# VSUBS sky130_fd_pr__nfet_01v8_lvt ad=1.65 pd=10.3 as=1.65 ps=10.3 w=10 l=0.15
X127 a_639_n1000# a_591_1022# a_543_n1000# VSUBS sky130_fd_pr__nfet_01v8_lvt ad=1.65 pd=10.3 as=1.65 ps=10.3 w=10 l=0.15
X128 a_n129_1218# a_n177_1130# a_n225_1218# VSUBS sky130_fd_pr__nfet_01v8_lvt ad=1.65 pd=10.3 as=1.65 ps=10.3 w=10 l=0.15
X129 a_2655_1218# a_2607_3240# a_2559_1218# VSUBS sky130_fd_pr__nfet_01v8_lvt ad=1.65 pd=10.3 as=1.65 ps=10.3 w=10 l=0.15
X130 a_3711_n1000# a_3663_1022# a_3615_n1000# VSUBS sky130_fd_pr__nfet_01v8_lvt ad=1.65 pd=10.3 as=1.65 ps=10.3 w=10 l=0.15
X131 a_n1953_n3218# a_n2001_n1196# a_n2049_n3218# VSUBS sky130_fd_pr__nfet_01v8_lvt ad=1.65 pd=10.3 as=1.65 ps=10.3 w=10 l=0.15
X132 a_n3393_n1000# a_n3441_1022# a_n3489_n1000# VSUBS sky130_fd_pr__nfet_01v8_lvt ad=1.65 pd=10.3 as=1.65 ps=10.3 w=10 l=0.15
X133 a_n4161_n3218# a_n4209_n3306# a_n4257_n3218# VSUBS sky130_fd_pr__nfet_01v8_lvt ad=1.65 pd=10.3 as=1.65 ps=10.3 w=10 l=0.15
X134 a_n1761_1218# a_n1809_3240# a_n1857_1218# VSUBS sky130_fd_pr__nfet_01v8_lvt ad=1.65 pd=10.3 as=1.65 ps=10.3 w=10 l=0.15
X135 a_4383_n1000# a_4335_n1088# a_4287_n1000# VSUBS sky130_fd_pr__nfet_01v8_lvt ad=1.65 pd=10.3 as=1.65 ps=10.3 w=10 l=0.15
X136 a_n4449_1218# a_n4497_3240# a_n4545_1218# VSUBS sky130_fd_pr__nfet_01v8_lvt ad=1.65 pd=10.3 as=1.65 ps=10.3 w=10 l=0.15
X137 a_n705_n1000# a_n753_1022# a_n801_n1000# VSUBS sky130_fd_pr__nfet_01v8_lvt ad=1.65 pd=10.3 as=1.65 ps=10.3 w=10 l=0.15
X138 a_159_n3218# a_111_n1196# a_63_n3218# VSUBS sky130_fd_pr__nfet_01v8_lvt ad=1.65 pd=10.3 as=1.65 ps=10.3 w=10 l=0.15
X139 a_n2433_1218# a_n2481_1130# a_n2529_1218# VSUBS sky130_fd_pr__nfet_01v8_lvt ad=1.65 pd=10.3 as=1.65 ps=10.3 w=10 l=0.15
X140 a_n4641_n3218# a_n4689_n1196# a_n4737_n3218# VSUBS sky130_fd_pr__nfet_01v8_lvt ad=1.65 pd=10.3 as=1.65 ps=10.3 w=10 l=0.15
X141 a_63_n3218# a_15_n3306# a_n33_n3218# VSUBS sky130_fd_pr__nfet_01v8_lvt ad=1.65 pd=10.3 as=1.65 ps=10.3 w=10 l=0.15
X142 a_3423_1218# a_3375_3240# a_3327_1218# VSUBS sky130_fd_pr__nfet_01v8_lvt ad=1.65 pd=10.3 as=1.65 ps=10.3 w=10 l=0.15
X143 a_n2049_n1000# a_n2097_1022# a_n2145_n1000# VSUBS sky130_fd_pr__nfet_01v8_lvt ad=1.65 pd=10.3 as=1.65 ps=10.3 w=10 l=0.15
X144 a_1887_n1000# a_1839_n1088# a_1791_n1000# VSUBS sky130_fd_pr__nfet_01v8_lvt ad=1.65 pd=10.3 as=1.65 ps=10.3 w=10 l=0.15
X145 a_639_n3218# a_591_n3306# a_543_n3218# VSUBS sky130_fd_pr__nfet_01v8_lvt ad=1.65 pd=10.3 as=1.65 ps=10.3 w=10 l=0.15
X146 a_n3105_1218# a_n3153_3240# a_n3201_1218# VSUBS sky130_fd_pr__nfet_01v8_lvt ad=1.65 pd=10.3 as=1.65 ps=10.3 w=10 l=0.15
X147 a_2943_1218# a_2895_1130# a_2847_1218# VSUBS sky130_fd_pr__nfet_01v8_lvt ad=1.65 pd=10.3 as=1.65 ps=10.3 w=10 l=0.15
X148 a_4095_1218# a_4047_1130# a_3999_1218# VSUBS sky130_fd_pr__nfet_01v8_lvt ad=1.65 pd=10.3 as=1.65 ps=10.3 w=10 l=0.15
X149 a_n4161_n1000# a_n4209_1022# a_n4257_n1000# VSUBS sky130_fd_pr__nfet_01v8_lvt ad=1.65 pd=10.3 as=1.65 ps=10.3 w=10 l=0.15
X150 a_n417_1218# a_n465_3240# a_n513_1218# VSUBS sky130_fd_pr__nfet_01v8_lvt ad=1.65 pd=10.3 as=1.65 ps=10.3 w=10 l=0.15
X151 a_2559_n1000# a_2511_1022# a_2463_n1000# VSUBS sky130_fd_pr__nfet_01v8_lvt ad=1.65 pd=10.3 as=1.65 ps=10.3 w=10 l=0.15
X152 a_2367_n3218# a_2319_n3306# a_2271_n3218# VSUBS sky130_fd_pr__nfet_01v8_lvt ad=1.65 pd=10.3 as=1.65 ps=10.3 w=10 l=0.15
X153 a_n3681_n1000# a_n3729_n1088# a_n3777_n1000# VSUBS sky130_fd_pr__nfet_01v8_lvt ad=1.65 pd=10.3 as=1.65 ps=10.3 w=10 l=0.15
X154 a_1023_n1000# a_975_1022# a_927_n1000# VSUBS sky130_fd_pr__nfet_01v8_lvt ad=1.65 pd=10.3 as=1.65 ps=10.3 w=10 l=0.15
X155 a_n4737_1218# a_n4785_1130# a_n4829_1218# VSUBS sky130_fd_pr__nfet_01v8_lvt ad=1.65 pd=10.3 as=3.1 ps=20.6 w=10 l=0.15
X156 a_1599_1218# a_1551_1130# a_1503_1218# VSUBS sky130_fd_pr__nfet_01v8_lvt ad=1.65 pd=10.3 as=1.65 ps=10.3 w=10 l=0.15
X157 a_n1665_n1000# a_n1713_1022# a_n1761_n1000# VSUBS sky130_fd_pr__nfet_01v8_lvt ad=1.65 pd=10.3 as=1.65 ps=10.3 w=10 l=0.15
X158 a_4671_n1000# a_4623_1022# a_4575_n1000# VSUBS sky130_fd_pr__nfet_01v8_lvt ad=1.65 pd=10.3 as=1.65 ps=10.3 w=10 l=0.15
X159 a_4479_n3218# a_4431_n3306# a_4383_n3218# VSUBS sky130_fd_pr__nfet_01v8_lvt ad=1.65 pd=10.3 as=1.65 ps=10.3 w=10 l=0.15
X160 a_2847_n3218# a_2799_n1196# a_2751_n3218# VSUBS sky130_fd_pr__nfet_01v8_lvt ad=1.65 pd=10.3 as=1.65 ps=10.3 w=10 l=0.15
X161 a_n2721_1218# a_n2769_3240# a_n2817_1218# VSUBS sky130_fd_pr__nfet_01v8_lvt ad=1.65 pd=10.3 as=1.65 ps=10.3 w=10 l=0.15
X162 a_639_1218# a_591_1130# a_543_1218# VSUBS sky130_fd_pr__nfet_01v8_lvt ad=1.65 pd=10.3 as=1.65 ps=10.3 w=10 l=0.15
X163 a_3711_1218# a_3663_1130# a_3615_1218# VSUBS sky130_fd_pr__nfet_01v8_lvt ad=1.65 pd=10.3 as=1.65 ps=10.3 w=10 l=0.15
X164 a_n2337_n1000# a_n2385_n1088# a_n2433_n1000# VSUBS sky130_fd_pr__nfet_01v8_lvt ad=1.65 pd=10.3 as=1.65 ps=10.3 w=10 l=0.15
X165 a_3327_n1000# a_3279_1022# a_3231_n1000# VSUBS sky130_fd_pr__nfet_01v8_lvt ad=1.65 pd=10.3 as=1.65 ps=10.3 w=10 l=0.15
X166 a_1407_n3218# a_1359_n3306# a_1311_n3218# VSUBS sky130_fd_pr__nfet_01v8_lvt ad=1.65 pd=10.3 as=1.65 ps=10.3 w=10 l=0.15
X167 a_255_n3218# a_207_n3306# a_159_n3218# VSUBS sky130_fd_pr__nfet_01v8_lvt ad=1.65 pd=10.3 as=1.65 ps=10.3 w=10 l=0.15
X168 a_n3393_1218# a_n3441_1130# a_n3489_1218# VSUBS sky130_fd_pr__nfet_01v8_lvt ad=1.65 pd=10.3 as=1.65 ps=10.3 w=10 l=0.15
X169 a_4383_1218# a_4335_3240# a_4287_1218# VSUBS sky130_fd_pr__nfet_01v8_lvt ad=1.65 pd=10.3 as=1.65 ps=10.3 w=10 l=0.15
X170 a_n3009_n1000# a_n3057_1022# a_n3105_n1000# VSUBS sky130_fd_pr__nfet_01v8_lvt ad=1.65 pd=10.3 as=1.65 ps=10.3 w=10 l=0.15
X171 a_1311_n1000# a_1263_n1088# a_1215_n1000# VSUBS sky130_fd_pr__nfet_01v8_lvt ad=1.65 pd=10.3 as=1.65 ps=10.3 w=10 l=0.15