* NGSPICE file created from power_transitor.ext - technology: sky130A

.subckt sky130_fd_pr__pfet_01v8_KPD88M w_n785_n300# a_15_n200# a_n561_n200# a_n177_n200#
+ a_111_n200# a_n129_n297# a_n513_n297# a_n609_231# a_n273_n200# a_63_n297# a_n749_n200#
+ a_687_n200# a_n321_n297# a_159_231# a_639_n297# a_n81_n200# a_399_n200# a_351_231#
+ a_495_n200# a_n33_231# a_447_n297# a_n225_231# a_591_n200# a_n657_n200# a_207_n200#
+ a_543_231# a_n369_n200# a_303_n200# a_n705_n297# a_255_n297# a_n417_231# a_n465_n200#
X0 a_n657_n200# a_n705_n297# a_n749_n200# w_n785_n300# sky130_fd_pr__pfet_01v8 ad=6.6e+11p pd=4.66e+06u as=6.2e+11p ps=4.62e+06u w=2e+06u l=150000u
X1 a_n273_n200# a_n321_n297# a_n369_n200# w_n785_n300# sky130_fd_pr__pfet_01v8 ad=6.6e+11p pd=4.66e+06u as=6.6e+11p ps=4.66e+06u w=2e+06u l=150000u
X2 a_303_n200# a_255_n297# a_207_n200# w_n785_n300# sky130_fd_pr__pfet_01v8 ad=6.6e+11p pd=4.66e+06u as=6.6e+11p ps=4.66e+06u w=2e+06u l=150000u
X3 a_591_n200# a_543_231# a_495_n200# w_n785_n300# sky130_fd_pr__pfet_01v8 ad=6.6e+11p pd=4.66e+06u as=6.6e+11p ps=4.66e+06u w=2e+06u l=150000u
X4 a_n177_n200# a_n225_231# a_n273_n200# w_n785_n300# sky130_fd_pr__pfet_01v8 ad=6.6e+11p pd=4.66e+06u as=0p ps=0u w=2e+06u l=150000u
X5 a_207_n200# a_159_231# a_111_n200# w_n785_n300# sky130_fd_pr__pfet_01v8 ad=0p pd=0u as=6.6e+11p ps=4.66e+06u w=2e+06u l=150000u
X6 a_495_n200# a_447_n297# a_399_n200# w_n785_n300# sky130_fd_pr__pfet_01v8 ad=0p pd=0u as=6.6e+11p ps=4.66e+06u w=2e+06u l=150000u
X7 a_n561_n200# a_n609_231# a_n657_n200# w_n785_n300# sky130_fd_pr__pfet_01v8 ad=6.6e+11p pd=4.66e+06u as=0p ps=0u w=2e+06u l=150000u
X8 a_111_n200# a_63_n297# a_15_n200# w_n785_n300# sky130_fd_pr__pfet_01v8 ad=0p pd=0u as=6.6e+11p ps=4.66e+06u w=2e+06u l=150000u
X9 a_399_n200# a_351_231# a_303_n200# w_n785_n300# sky130_fd_pr__pfet_01v8 ad=0p pd=0u as=0p ps=0u w=2e+06u l=150000u
X10 a_n465_n200# a_n513_n297# a_n561_n200# w_n785_n300# sky130_fd_pr__pfet_01v8 ad=6.6e+11p pd=4.66e+06u as=0p ps=0u w=2e+06u l=150000u
X11 a_687_n200# a_639_n297# a_591_n200# w_n785_n300# sky130_fd_pr__pfet_01v8 ad=6.2e+11p pd=4.62e+06u as=0p ps=0u w=2e+06u l=150000u
X12 a_n81_n200# a_n129_n297# a_n177_n200# w_n785_n300# sky130_fd_pr__pfet_01v8 ad=6.6e+11p pd=4.66e+06u as=0p ps=0u w=2e+06u l=150000u
X13 a_15_n200# a_n33_231# a_n81_n200# w_n785_n300# sky130_fd_pr__pfet_01v8 ad=0p pd=0u as=0p ps=0u w=2e+06u l=150000u
X14 a_n369_n200# a_n417_231# a_n465_n200# w_n785_n300# sky130_fd_pr__pfet_01v8 ad=0p pd=0u as=0p ps=0u w=2e+06u l=150000u
.ends

.subckt power_transitor BIAS_CURR EA_OUT VDD OUT
Xsky130_fd_pr__pfet_01v8_KPD88M_0[0|0] VDD OUT OUT OUT VDD EA_OUT EA_OUT EA_OUT VDD
+ EA_OUT OUT VDD EA_OUT EA_OUT EA_OUT VDD OUT EA_OUT VDD EA_OUT EA_OUT EA_OUT OUT
+ VDD OUT EA_OUT OUT VDD EA_OUT EA_OUT EA_OUT VDD sky130_fd_pr__pfet_01v8_KPD88M
Xsky130_fd_pr__pfet_01v8_KPD88M_0[1|0] VDD OUT OUT OUT VDD EA_OUT EA_OUT EA_OUT VDD
+ EA_OUT OUT VDD EA_OUT EA_OUT EA_OUT VDD OUT EA_OUT VDD EA_OUT EA_OUT EA_OUT OUT
+ VDD OUT EA_OUT OUT VDD EA_OUT EA_OUT EA_OUT VDD sky130_fd_pr__pfet_01v8_KPD88M
Xsky130_fd_pr__pfet_01v8_KPD88M_0[2|0] VDD OUT OUT OUT VDD EA_OUT EA_OUT EA_OUT VDD
+ EA_OUT OUT VDD EA_OUT EA_OUT EA_OUT VDD OUT EA_OUT VDD EA_OUT EA_OUT EA_OUT OUT
+ VDD OUT EA_OUT OUT VDD EA_OUT EA_OUT EA_OUT VDD sky130_fd_pr__pfet_01v8_KPD88M
Xsky130_fd_pr__pfet_01v8_KPD88M_0[3|0] VDD OUT OUT OUT VDD EA_OUT EA_OUT EA_OUT VDD
+ EA_OUT OUT VDD EA_OUT EA_OUT EA_OUT VDD OUT EA_OUT VDD EA_OUT EA_OUT EA_OUT OUT
+ VDD OUT EA_OUT OUT VDD EA_OUT EA_OUT EA_OUT VDD sky130_fd_pr__pfet_01v8_KPD88M
Xsky130_fd_pr__pfet_01v8_KPD88M_0[4|0] VDD OUT OUT OUT VDD EA_OUT EA_OUT EA_OUT VDD
+ EA_OUT OUT VDD EA_OUT EA_OUT EA_OUT VDD OUT EA_OUT VDD EA_OUT EA_OUT EA_OUT OUT
+ VDD OUT EA_OUT OUT VDD EA_OUT EA_OUT EA_OUT VDD sky130_fd_pr__pfet_01v8_KPD88M
Xsky130_fd_pr__pfet_01v8_KPD88M_0[5|0] VDD OUT OUT OUT VDD EA_OUT EA_OUT EA_OUT VDD
+ EA_OUT OUT VDD EA_OUT EA_OUT EA_OUT VDD OUT EA_OUT VDD EA_OUT EA_OUT EA_OUT OUT
+ VDD OUT EA_OUT OUT VDD EA_OUT EA_OUT EA_OUT VDD sky130_fd_pr__pfet_01v8_KPD88M
Xsky130_fd_pr__pfet_01v8_KPD88M_0[6|0] VDD OUT OUT OUT VDD EA_OUT EA_OUT EA_OUT VDD
+ EA_OUT OUT VDD EA_OUT EA_OUT EA_OUT VDD OUT EA_OUT VDD EA_OUT EA_OUT EA_OUT OUT
+ VDD OUT EA_OUT OUT VDD EA_OUT EA_OUT EA_OUT VDD sky130_fd_pr__pfet_01v8_KPD88M
Xsky130_fd_pr__pfet_01v8_KPD88M_0[7|0] VDD OUT OUT OUT VDD EA_OUT EA_OUT EA_OUT VDD
+ EA_OUT OUT VDD EA_OUT EA_OUT EA_OUT VDD OUT EA_OUT VDD EA_OUT EA_OUT EA_OUT OUT
+ VDD OUT EA_OUT OUT VDD EA_OUT EA_OUT EA_OUT VDD sky130_fd_pr__pfet_01v8_KPD88M
Xsky130_fd_pr__pfet_01v8_KPD88M_0[8|0] VDD OUT OUT OUT VDD EA_OUT EA_OUT EA_OUT VDD
+ EA_OUT OUT VDD EA_OUT EA_OUT EA_OUT VDD OUT EA_OUT VDD EA_OUT EA_OUT EA_OUT OUT
+ VDD OUT EA_OUT OUT VDD EA_OUT EA_OUT EA_OUT VDD sky130_fd_pr__pfet_01v8_KPD88M
Xsky130_fd_pr__pfet_01v8_KPD88M_0[9|0] VDD OUT OUT OUT VDD EA_OUT EA_OUT EA_OUT VDD
+ EA_OUT OUT VDD EA_OUT EA_OUT EA_OUT VDD OUT EA_OUT VDD EA_OUT EA_OUT EA_OUT OUT
+ VDD OUT EA_OUT OUT VDD EA_OUT EA_OUT EA_OUT VDD sky130_fd_pr__pfet_01v8_KPD88M
Xsky130_fd_pr__pfet_01v8_KPD88M_0[10|0] VDD OUT OUT OUT VDD EA_OUT EA_OUT EA_OUT VDD
+ EA_OUT OUT VDD EA_OUT EA_OUT EA_OUT VDD OUT EA_OUT VDD EA_OUT EA_OUT EA_OUT OUT
+ VDD OUT EA_OUT OUT VDD EA_OUT EA_OUT EA_OUT VDD sky130_fd_pr__pfet_01v8_KPD88M
Xsky130_fd_pr__pfet_01v8_KPD88M_0[11|0] VDD OUT OUT OUT VDD EA_OUT EA_OUT EA_OUT VDD
+ EA_OUT OUT VDD EA_OUT EA_OUT EA_OUT VDD OUT EA_OUT VDD EA_OUT EA_OUT EA_OUT OUT
+ VDD OUT EA_OUT OUT VDD EA_OUT EA_OUT EA_OUT VDD sky130_fd_pr__pfet_01v8_KPD88M
Xsky130_fd_pr__pfet_01v8_KPD88M_0[12|0] VDD OUT OUT OUT VDD EA_OUT EA_OUT EA_OUT VDD
+ EA_OUT OUT VDD EA_OUT EA_OUT EA_OUT VDD OUT EA_OUT VDD EA_OUT EA_OUT EA_OUT OUT
+ VDD OUT EA_OUT OUT VDD EA_OUT EA_OUT EA_OUT VDD sky130_fd_pr__pfet_01v8_KPD88M
Xsky130_fd_pr__pfet_01v8_KPD88M_0[13|0] VDD OUT OUT OUT VDD EA_OUT EA_OUT EA_OUT VDD
+ EA_OUT OUT VDD EA_OUT EA_OUT EA_OUT VDD OUT EA_OUT VDD EA_OUT EA_OUT EA_OUT OUT
+ VDD OUT EA_OUT OUT VDD EA_OUT EA_OUT EA_OUT VDD sky130_fd_pr__pfet_01v8_KPD88M
Xsky130_fd_pr__pfet_01v8_KPD88M_0[14|0] VDD OUT OUT OUT VDD EA_OUT EA_OUT EA_OUT VDD
+ EA_OUT OUT VDD EA_OUT EA_OUT EA_OUT VDD OUT EA_OUT VDD EA_OUT EA_OUT EA_OUT OUT
+ VDD OUT EA_OUT OUT VDD EA_OUT EA_OUT EA_OUT VDD sky130_fd_pr__pfet_01v8_KPD88M
Xsky130_fd_pr__pfet_01v8_KPD88M_0[15|0] VDD OUT OUT OUT VDD EA_OUT EA_OUT EA_OUT VDD
+ EA_OUT OUT VDD EA_OUT EA_OUT EA_OUT VDD OUT EA_OUT VDD EA_OUT EA_OUT EA_OUT OUT
+ VDD OUT EA_OUT OUT VDD EA_OUT EA_OUT EA_OUT VDD sky130_fd_pr__pfet_01v8_KPD88M
Xsky130_fd_pr__pfet_01v8_KPD88M_0[16|0] VDD OUT OUT OUT VDD EA_OUT EA_OUT EA_OUT VDD
+ EA_OUT OUT VDD EA_OUT EA_OUT EA_OUT VDD OUT EA_OUT VDD EA_OUT EA_OUT EA_OUT OUT
+ VDD OUT EA_OUT OUT VDD EA_OUT EA_OUT EA_OUT VDD sky130_fd_pr__pfet_01v8_KPD88M
Xsky130_fd_pr__pfet_01v8_KPD88M_0[17|0] VDD OUT OUT OUT VDD EA_OUT EA_OUT EA_OUT VDD
+ EA_OUT OUT VDD EA_OUT EA_OUT EA_OUT VDD OUT EA_OUT VDD EA_OUT EA_OUT EA_OUT OUT
+ VDD OUT EA_OUT OUT VDD EA_OUT EA_OUT EA_OUT VDD sky130_fd_pr__pfet_01v8_KPD88M
Xsky130_fd_pr__pfet_01v8_KPD88M_0[18|0] VDD OUT OUT OUT VDD EA_OUT EA_OUT EA_OUT VDD
+ EA_OUT OUT VDD EA_OUT EA_OUT EA_OUT VDD OUT EA_OUT VDD EA_OUT EA_OUT EA_OUT OUT
+ VDD OUT EA_OUT OUT VDD EA_OUT EA_OUT EA_OUT VDD sky130_fd_pr__pfet_01v8_KPD88M
Xsky130_fd_pr__pfet_01v8_KPD88M_0[19|0] VDD OUT OUT OUT VDD EA_OUT EA_OUT EA_OUT VDD
+ EA_OUT OUT VDD EA_OUT EA_OUT EA_OUT VDD OUT EA_OUT VDD EA_OUT EA_OUT EA_OUT OUT
+ VDD OUT EA_OUT OUT VDD EA_OUT EA_OUT EA_OUT VDD sky130_fd_pr__pfet_01v8_KPD88M
Xsky130_fd_pr__pfet_01v8_KPD88M_0[20|0] VDD OUT OUT OUT VDD EA_OUT EA_OUT EA_OUT VDD
+ EA_OUT OUT VDD EA_OUT EA_OUT EA_OUT VDD OUT EA_OUT VDD EA_OUT EA_OUT EA_OUT OUT
+ VDD OUT EA_OUT OUT VDD EA_OUT EA_OUT EA_OUT VDD sky130_fd_pr__pfet_01v8_KPD88M
Xsky130_fd_pr__pfet_01v8_KPD88M_0[21|0] VDD OUT OUT OUT VDD EA_OUT EA_OUT EA_OUT VDD
+ EA_OUT OUT VDD EA_OUT EA_OUT EA_OUT VDD OUT EA_OUT VDD EA_OUT EA_OUT EA_OUT OUT
+ VDD OUT EA_OUT OUT VDD EA_OUT EA_OUT EA_OUT VDD sky130_fd_pr__pfet_01v8_KPD88M
Xsky130_fd_pr__pfet_01v8_KPD88M_0[22|0] VDD OUT OUT OUT VDD EA_OUT EA_OUT EA_OUT VDD
+ EA_OUT OUT VDD EA_OUT EA_OUT EA_OUT VDD OUT EA_OUT VDD EA_OUT EA_OUT EA_OUT OUT
+ VDD OUT EA_OUT OUT VDD EA_OUT EA_OUT EA_OUT VDD sky130_fd_pr__pfet_01v8_KPD88M
Xsky130_fd_pr__pfet_01v8_KPD88M_0[23|0] VDD OUT OUT OUT VDD EA_OUT EA_OUT EA_OUT VDD
+ EA_OUT OUT VDD EA_OUT EA_OUT EA_OUT VDD OUT EA_OUT VDD EA_OUT EA_OUT EA_OUT OUT
+ VDD OUT EA_OUT OUT VDD EA_OUT EA_OUT EA_OUT VDD sky130_fd_pr__pfet_01v8_KPD88M
Xsky130_fd_pr__pfet_01v8_KPD88M_0[24|0] VDD OUT OUT OUT VDD EA_OUT EA_OUT EA_OUT VDD
+ EA_OUT OUT VDD EA_OUT EA_OUT EA_OUT VDD OUT EA_OUT VDD EA_OUT EA_OUT EA_OUT OUT
+ VDD OUT EA_OUT OUT VDD EA_OUT EA_OUT EA_OUT VDD sky130_fd_pr__pfet_01v8_KPD88M
Xsky130_fd_pr__pfet_01v8_KPD88M_0[25|0] VDD OUT OUT OUT VDD EA_OUT EA_OUT EA_OUT VDD
+ EA_OUT OUT VDD EA_OUT EA_OUT EA_OUT VDD OUT EA_OUT VDD EA_OUT EA_OUT EA_OUT OUT
+ VDD OUT EA_OUT OUT VDD EA_OUT EA_OUT EA_OUT VDD sky130_fd_pr__pfet_01v8_KPD88M
Xsky130_fd_pr__pfet_01v8_KPD88M_0[26|0] VDD OUT OUT OUT VDD EA_OUT EA_OUT EA_OUT VDD
+ EA_OUT OUT VDD EA_OUT EA_OUT EA_OUT VDD OUT EA_OUT VDD EA_OUT EA_OUT EA_OUT OUT
+ VDD OUT EA_OUT OUT VDD EA_OUT EA_OUT EA_OUT VDD sky130_fd_pr__pfet_01v8_KPD88M
Xsky130_fd_pr__pfet_01v8_KPD88M_0[27|0] VDD OUT OUT OUT VDD EA_OUT EA_OUT EA_OUT VDD
+ EA_OUT OUT VDD EA_OUT EA_OUT EA_OUT VDD OUT EA_OUT VDD EA_OUT EA_OUT EA_OUT OUT
+ VDD OUT EA_OUT OUT VDD EA_OUT EA_OUT EA_OUT VDD sky130_fd_pr__pfet_01v8_KPD88M
Xsky130_fd_pr__pfet_01v8_KPD88M_0[28|0] VDD OUT OUT OUT VDD EA_OUT EA_OUT EA_OUT VDD
+ EA_OUT OUT VDD EA_OUT EA_OUT EA_OUT VDD OUT EA_OUT VDD EA_OUT EA_OUT EA_OUT OUT
+ VDD OUT EA_OUT OUT VDD EA_OUT EA_OUT EA_OUT VDD sky130_fd_pr__pfet_01v8_KPD88M
Xsky130_fd_pr__pfet_01v8_KPD88M_0[29|0] VDD OUT OUT OUT VDD EA_OUT EA_OUT EA_OUT VDD
+ EA_OUT OUT VDD EA_OUT EA_OUT EA_OUT VDD OUT EA_OUT VDD EA_OUT EA_OUT EA_OUT OUT
+ VDD OUT EA_OUT OUT VDD EA_OUT EA_OUT EA_OUT VDD sky130_fd_pr__pfet_01v8_KPD88M
Xsky130_fd_pr__pfet_01v8_KPD88M_0[0|1] VDD OUT OUT OUT VDD EA_OUT EA_OUT EA_OUT VDD
+ EA_OUT OUT VDD EA_OUT EA_OUT EA_OUT VDD OUT EA_OUT VDD EA_OUT EA_OUT EA_OUT OUT
+ VDD OUT EA_OUT OUT VDD EA_OUT EA_OUT EA_OUT VDD sky130_fd_pr__pfet_01v8_KPD88M
Xsky130_fd_pr__pfet_01v8_KPD88M_0[1|1] VDD OUT OUT OUT VDD EA_OUT EA_OUT EA_OUT VDD
+ EA_OUT OUT VDD EA_OUT EA_OUT EA_OUT VDD OUT EA_OUT VDD EA_OUT EA_OUT EA_OUT OUT
+ VDD OUT EA_OUT OUT VDD EA_OUT EA_OUT EA_OUT VDD sky130_fd_pr__pfet_01v8_KPD88M
Xsky130_fd_pr__pfet_01v8_KPD88M_0[2|1] VDD OUT OUT OUT VDD EA_OUT EA_OUT EA_OUT VDD
+ EA_OUT OUT VDD EA_OUT EA_OUT EA_OUT VDD OUT EA_OUT VDD EA_OUT EA_OUT EA_OUT OUT
+ VDD OUT EA_OUT OUT VDD EA_OUT EA_OUT EA_OUT VDD sky130_fd_pr__pfet_01v8_KPD88M
Xsky130_fd_pr__pfet_01v8_KPD88M_0[3|1] VDD OUT OUT OUT VDD EA_OUT EA_OUT EA_OUT VDD
+ EA_OUT OUT VDD EA_OUT EA_OUT EA_OUT VDD OUT EA_OUT VDD EA_OUT EA_OUT EA_OUT OUT
+ VDD OUT EA_OUT OUT VDD EA_OUT EA_OUT EA_OUT VDD sky130_fd_pr__pfet_01v8_KPD88M
Xsky130_fd_pr__pfet_01v8_KPD88M_0[4|1] VDD OUT OUT OUT VDD EA_OUT EA_OUT EA_OUT VDD
+ EA_OUT OUT VDD EA_OUT EA_OUT EA_OUT VDD OUT EA_OUT VDD EA_OUT EA_OUT EA_OUT OUT
+ VDD OUT EA_OUT OUT VDD EA_OUT EA_OUT EA_OUT VDD sky130_fd_pr__pfet_01v8_KPD88M
Xsky130_fd_pr__pfet_01v8_KPD88M_0[5|1] VDD OUT OUT OUT VDD EA_OUT EA_OUT EA_OUT VDD
+ EA_OUT OUT VDD EA_OUT EA_OUT EA_OUT VDD OUT EA_OUT VDD EA_OUT EA_OUT EA_OUT OUT
+ VDD OUT EA_OUT OUT VDD EA_OUT EA_OUT EA_OUT VDD sky130_fd_pr__pfet_01v8_KPD88M
Xsky130_fd_pr__pfet_01v8_KPD88M_0[6|1] VDD OUT OUT OUT VDD EA_OUT EA_OUT EA_OUT VDD
+ EA_OUT OUT VDD EA_OUT EA_OUT EA_OUT VDD OUT EA_OUT VDD EA_OUT EA_OUT EA_OUT OUT
+ VDD OUT EA_OUT OUT VDD EA_OUT EA_OUT EA_OUT VDD sky130_fd_pr__pfet_01v8_KPD88M
Xsky130_fd_pr__pfet_01v8_KPD88M_0[7|1] VDD OUT OUT OUT VDD EA_OUT EA_OUT EA_OUT VDD
+ EA_OUT OUT VDD EA_OUT EA_OUT EA_OUT VDD OUT EA_OUT VDD EA_OUT EA_OUT EA_OUT OUT
+ VDD OUT EA_OUT OUT VDD EA_OUT EA_OUT EA_OUT VDD sky130_fd_pr__pfet_01v8_KPD88M
Xsky130_fd_pr__pfet_01v8_KPD88M_0[8|1] VDD OUT OUT OUT VDD EA_OUT EA_OUT EA_OUT VDD
+ EA_OUT OUT VDD EA_OUT EA_OUT EA_OUT VDD OUT EA_OUT VDD EA_OUT EA_OUT EA_OUT OUT
+ VDD OUT EA_OUT OUT VDD EA_OUT EA_OUT EA_OUT VDD sky130_fd_pr__pfet_01v8_KPD88M
Xsky130_fd_pr__pfet_01v8_KPD88M_0[9|1] VDD OUT OUT OUT VDD EA_OUT EA_OUT EA_OUT VDD
+ EA_OUT OUT VDD EA_OUT EA_OUT EA_OUT VDD OUT EA_OUT VDD EA_OUT EA_OUT EA_OUT OUT
+ VDD OUT EA_OUT OUT VDD EA_OUT EA_OUT EA_OUT VDD sky130_fd_pr__pfet_01v8_KPD88M
Xsky130_fd_pr__pfet_01v8_KPD88M_0[10|1] VDD OUT OUT OUT VDD EA_OUT EA_OUT EA_OUT VDD
+ EA_OUT OUT VDD EA_OUT EA_OUT EA_OUT VDD OUT EA_OUT VDD EA_OUT EA_OUT EA_OUT OUT
+ VDD OUT EA_OUT OUT VDD EA_OUT EA_OUT EA_OUT VDD sky130_fd_pr__pfet_01v8_KPD88M
Xsky130_fd_pr__pfet_01v8_KPD88M_0[11|1] VDD OUT OUT OUT VDD EA_OUT EA_OUT EA_OUT VDD
+ EA_OUT OUT VDD EA_OUT EA_OUT EA_OUT VDD OUT EA_OUT VDD EA_OUT EA_OUT EA_OUT OUT
+ VDD OUT EA_OUT OUT VDD EA_OUT EA_OUT EA_OUT VDD sky130_fd_pr__pfet_01v8_KPD88M
Xsky130_fd_pr__pfet_01v8_KPD88M_0[12|1] VDD OUT OUT OUT VDD EA_OUT EA_OUT EA_OUT VDD
+ EA_OUT OUT VDD EA_OUT EA_OUT EA_OUT VDD OUT EA_OUT VDD EA_OUT EA_OUT EA_OUT OUT
+ VDD OUT EA_OUT OUT VDD EA_OUT EA_OUT EA_OUT VDD sky130_fd_pr__pfet_01v8_KPD88M
Xsky130_fd_pr__pfet_01v8_KPD88M_0[13|1] VDD OUT OUT OUT VDD EA_OUT EA_OUT EA_OUT VDD
+ EA_OUT OUT VDD EA_OUT EA_OUT EA_OUT VDD OUT EA_OUT VDD EA_OUT EA_OUT EA_OUT OUT
+ VDD OUT EA_OUT OUT VDD EA_OUT EA_OUT EA_OUT VDD sky130_fd_pr__pfet_01v8_KPD88M
Xsky130_fd_pr__pfet_01v8_KPD88M_0[14|1] VDD OUT OUT OUT VDD EA_OUT EA_OUT EA_OUT VDD
+ EA_OUT OUT VDD EA_OUT EA_OUT EA_OUT VDD OUT EA_OUT VDD EA_OUT EA_OUT EA_OUT OUT
+ VDD OUT EA_OUT OUT VDD EA_OUT EA_OUT EA_OUT VDD sky130_fd_pr__pfet_01v8_KPD88M
Xsky130_fd_pr__pfet_01v8_KPD88M_0[15|1] VDD OUT OUT OUT VDD EA_OUT EA_OUT EA_OUT VDD
+ EA_OUT OUT VDD EA_OUT EA_OUT EA_OUT VDD OUT EA_OUT VDD EA_OUT EA_OUT EA_OUT OUT
+ VDD OUT EA_OUT OUT VDD EA_OUT EA_OUT EA_OUT VDD sky130_fd_pr__pfet_01v8_KPD88M
Xsky130_fd_pr__pfet_01v8_KPD88M_0[16|1] VDD OUT OUT OUT VDD EA_OUT EA_OUT EA_OUT VDD
+ EA_OUT OUT VDD EA_OUT EA_OUT EA_OUT VDD OUT EA_OUT VDD EA_OUT EA_OUT EA_OUT OUT
+ VDD OUT EA_OUT OUT VDD EA_OUT EA_OUT EA_OUT VDD sky130_fd_pr__pfet_01v8_KPD88M
Xsky130_fd_pr__pfet_01v8_KPD88M_0[17|1] VDD OUT OUT OUT VDD EA_OUT EA_OUT EA_OUT VDD
+ EA_OUT OUT VDD EA_OUT EA_OUT EA_OUT VDD OUT EA_OUT VDD EA_OUT EA_OUT EA_OUT OUT
+ VDD OUT EA_OUT OUT VDD EA_OUT EA_OUT EA_OUT VDD sky130_fd_pr__pfet_01v8_KPD88M
Xsky130_fd_pr__pfet_01v8_KPD88M_0[18|1] VDD OUT OUT OUT VDD EA_OUT EA_OUT EA_OUT VDD
+ EA_OUT OUT VDD EA_OUT EA_OUT EA_OUT VDD OUT EA_OUT VDD EA_OUT EA_OUT EA_OUT OUT
+ VDD OUT EA_OUT OUT VDD EA_OUT EA_OUT EA_OUT VDD sky130_fd_pr__pfet_01v8_KPD88M
Xsky130_fd_pr__pfet_01v8_KPD88M_0[19|1] VDD OUT OUT OUT VDD EA_OUT EA_OUT EA_OUT VDD
+ EA_OUT OUT VDD EA_OUT EA_OUT EA_OUT VDD OUT EA_OUT VDD EA_OUT EA_OUT EA_OUT OUT
+ VDD OUT EA_OUT OUT VDD EA_OUT EA_OUT EA_OUT VDD sky130_fd_pr__pfet_01v8_KPD88M
Xsky130_fd_pr__pfet_01v8_KPD88M_0[20|1] VDD OUT OUT OUT VDD EA_OUT EA_OUT EA_OUT VDD
+ EA_OUT OUT VDD EA_OUT EA_OUT EA_OUT VDD OUT EA_OUT VDD EA_OUT EA_OUT EA_OUT OUT
+ VDD OUT EA_OUT OUT VDD EA_OUT EA_OUT EA_OUT VDD sky130_fd_pr__pfet_01v8_KPD88M
Xsky130_fd_pr__pfet_01v8_KPD88M_0[21|1] VDD OUT OUT OUT VDD EA_OUT EA_OUT EA_OUT VDD
+ EA_OUT OUT VDD EA_OUT EA_OUT EA_OUT VDD OUT EA_OUT VDD EA_OUT EA_OUT EA_OUT OUT
+ VDD OUT EA_OUT OUT VDD EA_OUT EA_OUT EA_OUT VDD sky130_fd_pr__pfet_01v8_KPD88M
Xsky130_fd_pr__pfet_01v8_KPD88M_0[22|1] VDD OUT OUT OUT VDD EA_OUT EA_OUT EA_OUT VDD
+ EA_OUT OUT VDD EA_OUT EA_OUT EA_OUT VDD OUT EA_OUT VDD EA_OUT EA_OUT EA_OUT OUT
+ VDD OUT EA_OUT OUT VDD EA_OUT EA_OUT EA_OUT VDD sky130_fd_pr__pfet_01v8_KPD88M
Xsky130_fd_pr__pfet_01v8_KPD88M_0[23|1] VDD OUT OUT OUT VDD EA_OUT EA_OUT EA_OUT VDD
+ EA_OUT OUT VDD EA_OUT EA_OUT EA_OUT VDD OUT EA_OUT VDD EA_OUT EA_OUT EA_OUT OUT
+ VDD OUT EA_OUT OUT VDD EA_OUT EA_OUT EA_OUT VDD sky130_fd_pr__pfet_01v8_KPD88M
Xsky130_fd_pr__pfet_01v8_KPD88M_0[24|1] VDD OUT OUT OUT VDD EA_OUT EA_OUT EA_OUT VDD
+ EA_OUT OUT VDD EA_OUT EA_OUT EA_OUT VDD OUT EA_OUT VDD EA_OUT EA_OUT EA_OUT OUT
+ VDD OUT EA_OUT OUT VDD EA_OUT EA_OUT EA_OUT VDD sky130_fd_pr__pfet_01v8_KPD88M
Xsky130_fd_pr__pfet_01v8_KPD88M_0[25|1] VDD OUT OUT OUT VDD EA_OUT EA_OUT EA_OUT VDD
+ EA_OUT OUT VDD EA_OUT EA_OUT EA_OUT VDD OUT EA_OUT VDD EA_OUT EA_OUT EA_OUT OUT
+ VDD OUT EA_OUT OUT VDD EA_OUT EA_OUT EA_OUT VDD sky130_fd_pr__pfet_01v8_KPD88M
Xsky130_fd_pr__pfet_01v8_KPD88M_0[26|1] VDD OUT OUT OUT VDD EA_OUT EA_OUT EA_OUT VDD
+ EA_OUT OUT VDD EA_OUT EA_OUT EA_OUT VDD OUT EA_OUT VDD EA_OUT EA_OUT EA_OUT OUT
+ VDD OUT EA_OUT OUT VDD EA_OUT EA_OUT EA_OUT VDD sky130_fd_pr__pfet_01v8_KPD88M
Xsky130_fd_pr__pfet_01v8_KPD88M_0[27|1] VDD OUT OUT OUT VDD EA_OUT EA_OUT EA_OUT VDD
+ EA_OUT OUT VDD EA_OUT EA_OUT EA_OUT VDD OUT EA_OUT VDD EA_OUT EA_OUT EA_OUT OUT
+ VDD OUT EA_OUT OUT VDD EA_OUT EA_OUT EA_OUT VDD sky130_fd_pr__pfet_01v8_KPD88M
Xsky130_fd_pr__pfet_01v8_KPD88M_0[28|1] VDD OUT OUT OUT VDD EA_OUT EA_OUT EA_OUT VDD
+ EA_OUT OUT VDD EA_OUT EA_OUT EA_OUT VDD OUT EA_OUT VDD EA_OUT EA_OUT EA_OUT OUT
+ VDD OUT EA_OUT OUT VDD EA_OUT EA_OUT EA_OUT VDD sky130_fd_pr__pfet_01v8_KPD88M
Xsky130_fd_pr__pfet_01v8_KPD88M_0[29|1] VDD OUT OUT OUT VDD EA_OUT EA_OUT EA_OUT VDD
+ EA_OUT OUT VDD EA_OUT EA_OUT EA_OUT VDD OUT EA_OUT VDD EA_OUT EA_OUT EA_OUT OUT
+ VDD OUT EA_OUT OUT VDD EA_OUT EA_OUT EA_OUT VDD sky130_fd_pr__pfet_01v8_KPD88M
Xsky130_fd_pr__pfet_01v8_KPD88M_0[0|2] VDD OUT OUT OUT VDD EA_OUT EA_OUT EA_OUT VDD
+ EA_OUT OUT VDD EA_OUT EA_OUT EA_OUT VDD OUT EA_OUT VDD EA_OUT EA_OUT EA_OUT OUT
+ VDD OUT EA_OUT OUT VDD EA_OUT EA_OUT EA_OUT VDD sky130_fd_pr__pfet_01v8_KPD88M
Xsky130_fd_pr__pfet_01v8_KPD88M_0[1|2] VDD OUT OUT OUT VDD EA_OUT EA_OUT EA_OUT VDD
+ EA_OUT OUT VDD EA_OUT EA_OUT EA_OUT VDD OUT EA_OUT VDD EA_OUT EA_OUT EA_OUT OUT
+ VDD OUT EA_OUT OUT VDD EA_OUT EA_OUT EA_OUT VDD sky130_fd_pr__pfet_01v8_KPD88M
Xsky130_fd_pr__pfet_01v8_KPD88M_0[2|2] VDD OUT OUT OUT VDD EA_OUT EA_OUT EA_OUT VDD
+ EA_OUT OUT VDD EA_OUT EA_OUT EA_OUT VDD OUT EA_OUT VDD EA_OUT EA_OUT EA_OUT OUT
+ VDD OUT EA_OUT OUT VDD EA_OUT EA_OUT EA_OUT VDD sky130_fd_pr__pfet_01v8_KPD88M
Xsky130_fd_pr__pfet_01v8_KPD88M_0[3|2] VDD OUT OUT OUT VDD EA_OUT EA_OUT EA_OUT VDD
+ EA_OUT OUT VDD EA_OUT EA_OUT EA_OUT VDD OUT EA_OUT VDD EA_OUT EA_OUT EA_OUT OUT
+ VDD OUT EA_OUT OUT VDD EA_OUT EA_OUT EA_OUT VDD sky130_fd_pr__pfet_01v8_KPD88M
Xsky130_fd_pr__pfet_01v8_KPD88M_0[4|2] VDD OUT OUT OUT VDD EA_OUT EA_OUT EA_OUT VDD
+ EA_OUT OUT VDD EA_OUT EA_OUT EA_OUT VDD OUT EA_OUT VDD EA_OUT EA_OUT EA_OUT OUT
+ VDD OUT EA_OUT OUT VDD EA_OUT EA_OUT EA_OUT VDD sky130_fd_pr__pfet_01v8_KPD88M
Xsky130_fd_pr__pfet_01v8_KPD88M_0[5|2] VDD OUT OUT OUT VDD EA_OUT EA_OUT EA_OUT VDD
+ EA_OUT OUT VDD EA_OUT EA_OUT EA_OUT VDD OUT EA_OUT VDD EA_OUT EA_OUT EA_OUT OUT
+ VDD OUT EA_OUT OUT VDD EA_OUT EA_OUT EA_OUT VDD sky130_fd_pr__pfet_01v8_KPD88M
Xsky130_fd_pr__pfet_01v8_KPD88M_0[6|2] VDD OUT OUT OUT VDD EA_OUT EA_OUT EA_OUT VDD
+ EA_OUT OUT VDD EA_OUT EA_OUT EA_OUT VDD OUT EA_OUT VDD EA_OUT EA_OUT EA_OUT OUT
+ VDD OUT EA_OUT OUT VDD EA_OUT EA_OUT EA_OUT VDD sky130_fd_pr__pfet_01v8_KPD88M
Xsky130_fd_pr__pfet_01v8_KPD88M_0[7|2] VDD OUT OUT OUT VDD EA_OUT EA_OUT EA_OUT VDD
+ EA_OUT OUT VDD EA_OUT EA_OUT EA_OUT VDD OUT EA_OUT VDD EA_OUT EA_OUT EA_OUT OUT
+ VDD OUT EA_OUT OUT VDD EA_OUT EA_OUT EA_OUT VDD sky130_fd_pr__pfet_01v8_KPD88M
Xsky130_fd_pr__pfet_01v8_KPD88M_0[8|2] VDD OUT OUT OUT VDD EA_OUT EA_OUT EA_OUT VDD
+ EA_OUT OUT VDD EA_OUT EA_OUT EA_OUT VDD OUT EA_OUT VDD EA_OUT EA_OUT EA_OUT OUT
+ VDD OUT EA_OUT OUT VDD EA_OUT EA_OUT EA_OUT VDD sky130_fd_pr__pfet_01v8_KPD88M
Xsky130_fd_pr__pfet_01v8_KPD88M_0[9|2] VDD OUT OUT OUT VDD EA_OUT EA_OUT EA_OUT VDD
+ EA_OUT OUT VDD EA_OUT EA_OUT EA_OUT VDD OUT EA_OUT VDD EA_OUT EA_OUT EA_OUT OUT
+ VDD OUT EA_OUT OUT VDD EA_OUT EA_OUT EA_OUT VDD sky130_fd_pr__pfet_01v8_KPD88M
Xsky130_fd_pr__pfet_01v8_KPD88M_0[10|2] VDD OUT OUT OUT VDD EA_OUT EA_OUT EA_OUT VDD
+ EA_OUT OUT VDD EA_OUT EA_OUT EA_OUT VDD OUT EA_OUT VDD EA_OUT EA_OUT EA_OUT OUT
+ VDD OUT EA_OUT OUT VDD EA_OUT EA_OUT EA_OUT VDD sky130_fd_pr__pfet_01v8_KPD88M
Xsky130_fd_pr__pfet_01v8_KPD88M_0[11|2] VDD OUT OUT OUT VDD EA_OUT EA_OUT EA_OUT VDD
+ EA_OUT OUT VDD EA_OUT EA_OUT EA_OUT VDD OUT EA_OUT VDD EA_OUT EA_OUT EA_OUT OUT
+ VDD OUT EA_OUT OUT VDD EA_OUT EA_OUT EA_OUT VDD sky130_fd_pr__pfet_01v8_KPD88M
Xsky130_fd_pr__pfet_01v8_KPD88M_0[12|2] VDD OUT OUT OUT VDD EA_OUT EA_OUT EA_OUT VDD
+ EA_OUT OUT VDD EA_OUT EA_OUT EA_OUT VDD OUT EA_OUT VDD EA_OUT EA_OUT EA_OUT OUT
+ VDD OUT EA_OUT OUT VDD EA_OUT EA_OUT EA_OUT VDD sky130_fd_pr__pfet_01v8_KPD88M
Xsky130_fd_pr__pfet_01v8_KPD88M_0[13|2] VDD OUT OUT OUT VDD EA_OUT EA_OUT EA_OUT VDD
+ EA_OUT OUT VDD EA_OUT EA_OUT EA_OUT VDD OUT EA_OUT VDD EA_OUT EA_OUT EA_OUT OUT
+ VDD OUT EA_OUT OUT VDD EA_OUT EA_OUT EA_OUT VDD sky130_fd_pr__pfet_01v8_KPD88M
Xsky130_fd_pr__pfet_01v8_KPD88M_0[14|2] VDD OUT OUT OUT VDD EA_OUT EA_OUT EA_OUT VDD
+ EA_OUT OUT VDD EA_OUT EA_OUT EA_OUT VDD OUT EA_OUT VDD EA_OUT EA_OUT EA_OUT OUT
+ VDD OUT EA_OUT OUT VDD EA_OUT EA_OUT EA_OUT VDD sky130_fd_pr__pfet_01v8_KPD88M
Xsky130_fd_pr__pfet_01v8_KPD88M_0[15|2] VDD OUT OUT OUT VDD EA_OUT EA_OUT EA_OUT VDD
+ EA_OUT OUT VDD EA_OUT EA_OUT EA_OUT VDD OUT EA_OUT VDD EA_OUT EA_OUT EA_OUT OUT
+ VDD OUT EA_OUT OUT VDD EA_OUT EA_OUT EA_OUT VDD sky130_fd_pr__pfet_01v8_KPD88M
Xsky130_fd_pr__pfet_01v8_KPD88M_0[16|2] VDD OUT OUT OUT VDD EA_OUT EA_OUT EA_OUT VDD
+ EA_OUT OUT VDD EA_OUT EA_OUT EA_OUT VDD OUT EA_OUT VDD EA_OUT EA_OUT EA_OUT OUT
+ VDD OUT EA_OUT OUT VDD EA_OUT EA_OUT EA_OUT VDD sky130_fd_pr__pfet_01v8_KPD88M
Xsky130_fd_pr__pfet_01v8_KPD88M_0[17|2] VDD OUT OUT OUT VDD EA_OUT EA_OUT EA_OUT VDD
+ EA_OUT OUT VDD EA_OUT EA_OUT EA_OUT VDD OUT EA_OUT VDD EA_OUT EA_OUT EA_OUT OUT
+ VDD OUT EA_OUT OUT VDD EA_OUT EA_OUT EA_OUT VDD sky130_fd_pr__pfet_01v8_KPD88M
Xsky130_fd_pr__pfet_01v8_KPD88M_0[18|2] VDD OUT OUT OUT VDD EA_OUT EA_OUT EA_OUT VDD
+ EA_OUT OUT VDD EA_OUT EA_OUT EA_OUT VDD OUT EA_OUT VDD EA_OUT EA_OUT EA_OUT OUT
+ VDD OUT EA_OUT OUT VDD EA_OUT EA_OUT EA_OUT VDD sky130_fd_pr__pfet_01v8_KPD88M
Xsky130_fd_pr__pfet_01v8_KPD88M_0[19|2] VDD OUT OUT OUT VDD EA_OUT EA_OUT EA_OUT VDD
+ EA_OUT OUT VDD EA_OUT EA_OUT EA_OUT VDD OUT EA_OUT VDD EA_OUT EA_OUT EA_OUT OUT
+ VDD OUT EA_OUT OUT VDD EA_OUT EA_OUT EA_OUT VDD sky130_fd_pr__pfet_01v8_KPD88M
Xsky130_fd_pr__pfet_01v8_KPD88M_0[20|2] VDD OUT OUT OUT VDD EA_OUT EA_OUT EA_OUT VDD
+ EA_OUT OUT VDD EA_OUT EA_OUT EA_OUT VDD OUT EA_OUT VDD EA_OUT EA_OUT EA_OUT OUT
+ VDD OUT EA_OUT OUT VDD EA_OUT EA_OUT EA_OUT VDD sky130_fd_pr__pfet_01v8_KPD88M
Xsky130_fd_pr__pfet_01v8_KPD88M_0[21|2] VDD OUT OUT OUT VDD EA_OUT EA_OUT EA_OUT VDD
+ EA_OUT OUT VDD EA_OUT EA_OUT EA_OUT VDD OUT EA_OUT VDD EA_OUT EA_OUT EA_OUT OUT
+ VDD OUT EA_OUT OUT VDD EA_OUT EA_OUT EA_OUT VDD sky130_fd_pr__pfet_01v8_KPD88M
Xsky130_fd_pr__pfet_01v8_KPD88M_0[22|2] VDD OUT OUT OUT VDD EA_OUT EA_OUT EA_OUT VDD
+ EA_OUT OUT VDD EA_OUT EA_OUT EA_OUT VDD OUT EA_OUT VDD EA_OUT EA_OUT EA_OUT OUT
+ VDD OUT EA_OUT OUT VDD EA_OUT EA_OUT EA_OUT VDD sky130_fd_pr__pfet_01v8_KPD88M
Xsky130_fd_pr__pfet_01v8_KPD88M_0[23|2] VDD OUT OUT OUT VDD EA_OUT EA_OUT EA_OUT VDD
+ EA_OUT OUT VDD EA_OUT EA_OUT EA_OUT VDD OUT EA_OUT VDD EA_OUT EA_OUT EA_OUT OUT
+ VDD OUT EA_OUT OUT VDD EA_OUT EA_OUT EA_OUT VDD sky130_fd_pr__pfet_01v8_KPD88M
Xsky130_fd_pr__pfet_01v8_KPD88M_0[24|2] VDD OUT OUT OUT VDD EA_OUT EA_OUT EA_OUT VDD
+ EA_OUT OUT VDD EA_OUT EA_OUT EA_OUT VDD OUT EA_OUT VDD EA_OUT EA_OUT EA_OUT OUT
+ VDD OUT EA_OUT OUT VDD EA_OUT EA_OUT EA_OUT VDD sky130_fd_pr__pfet_01v8_KPD88M
Xsky130_fd_pr__pfet_01v8_KPD88M_0[25|2] VDD OUT OUT OUT VDD EA_OUT EA_OUT EA_OUT VDD
+ EA_OUT OUT VDD EA_OUT EA_OUT EA_OUT VDD OUT EA_OUT VDD EA_OUT EA_OUT EA_OUT OUT
+ VDD OUT EA_OUT OUT VDD EA_OUT EA_OUT EA_OUT VDD sky130_fd_pr__pfet_01v8_KPD88M
Xsky130_fd_pr__pfet_01v8_KPD88M_0[26|2] VDD OUT OUT OUT VDD EA_OUT EA_OUT EA_OUT VDD
+ EA_OUT OUT VDD EA_OUT EA_OUT EA_OUT VDD OUT EA_OUT VDD EA_OUT EA_OUT EA_OUT OUT
+ VDD OUT EA_OUT OUT VDD EA_OUT EA_OUT EA_OUT VDD sky130_fd_pr__pfet_01v8_KPD88M
Xsky130_fd_pr__pfet_01v8_KPD88M_0[27|2] VDD OUT OUT OUT VDD EA_OUT EA_OUT EA_OUT VDD
+ EA_OUT OUT VDD EA_OUT EA_OUT EA_OUT VDD OUT EA_OUT VDD EA_OUT EA_OUT EA_OUT OUT
+ VDD OUT EA_OUT OUT VDD EA_OUT EA_OUT EA_OUT VDD sky130_fd_pr__pfet_01v8_KPD88M
Xsky130_fd_pr__pfet_01v8_KPD88M_0[28|2] VDD OUT OUT OUT VDD EA_OUT EA_OUT EA_OUT VDD
+ EA_OUT OUT VDD EA_OUT EA_OUT EA_OUT VDD OUT EA_OUT VDD EA_OUT EA_OUT EA_OUT OUT
+ VDD OUT EA_OUT OUT VDD EA_OUT EA_OUT EA_OUT VDD sky130_fd_pr__pfet_01v8_KPD88M
Xsky130_fd_pr__pfet_01v8_KPD88M_0[29|2] VDD OUT OUT OUT VDD EA_OUT EA_OUT EA_OUT VDD
+ EA_OUT OUT VDD EA_OUT EA_OUT EA_OUT VDD OUT EA_OUT VDD EA_OUT EA_OUT EA_OUT OUT
+ VDD OUT EA_OUT OUT VDD EA_OUT EA_OUT EA_OUT VDD sky130_fd_pr__pfet_01v8_KPD88M
Xsky130_fd_pr__pfet_01v8_KPD88M_0[0|3] VDD OUT OUT OUT VDD EA_OUT EA_OUT EA_OUT VDD
+ EA_OUT OUT VDD EA_OUT EA_OUT EA_OUT VDD OUT EA_OUT VDD EA_OUT EA_OUT EA_OUT OUT
+ VDD OUT EA_OUT OUT VDD EA_OUT EA_OUT EA_OUT VDD sky130_fd_pr__pfet_01v8_KPD88M
Xsky130_fd_pr__pfet_01v8_KPD88M_0[1|3] VDD OUT OUT OUT VDD EA_OUT EA_OUT EA_OUT VDD
+ EA_OUT OUT VDD EA_OUT EA_OUT EA_OUT VDD OUT EA_OUT VDD EA_OUT EA_OUT EA_OUT OUT
+ VDD OUT EA_OUT OUT VDD EA_OUT EA_OUT EA_OUT VDD sky130_fd_pr__pfet_01v8_KPD88M
Xsky130_fd_pr__pfet_01v8_KPD88M_0[2|3] VDD OUT OUT OUT VDD EA_OUT EA_OUT EA_OUT VDD
+ EA_OUT OUT VDD EA_OUT EA_OUT EA_OUT VDD OUT EA_OUT VDD EA_OUT EA_OUT EA_OUT OUT
+ VDD OUT EA_OUT OUT VDD EA_OUT EA_OUT EA_OUT VDD sky130_fd_pr__pfet_01v8_KPD88M
Xsky130_fd_pr__pfet_01v8_KPD88M_0[3|3] VDD OUT OUT OUT VDD EA_OUT EA_OUT EA_OUT VDD
+ EA_OUT OUT VDD EA_OUT EA_OUT EA_OUT VDD OUT EA_OUT VDD EA_OUT EA_OUT EA_OUT OUT
+ VDD OUT EA_OUT OUT VDD EA_OUT EA_OUT EA_OUT VDD sky130_fd_pr__pfet_01v8_KPD88M
Xsky130_fd_pr__pfet_01v8_KPD88M_0[4|3] VDD OUT OUT OUT VDD EA_OUT EA_OUT EA_OUT VDD
+ EA_OUT OUT VDD EA_OUT EA_OUT EA_OUT VDD OUT EA_OUT VDD EA_OUT EA_OUT EA_OUT OUT
+ VDD OUT EA_OUT OUT VDD EA_OUT EA_OUT EA_OUT VDD sky130_fd_pr__pfet_01v8_KPD88M
Xsky130_fd_pr__pfet_01v8_KPD88M_0[5|3] VDD OUT OUT OUT VDD EA_OUT EA_OUT EA_OUT VDD
+ EA_OUT OUT VDD EA_OUT EA_OUT EA_OUT VDD OUT EA_OUT VDD EA_OUT EA_OUT EA_OUT OUT
+ VDD OUT EA_OUT OUT VDD EA_OUT EA_OUT EA_OUT VDD sky130_fd_pr__pfet_01v8_KPD88M
Xsky130_fd_pr__pfet_01v8_KPD88M_0[6|3] VDD OUT OUT OUT VDD EA_OUT EA_OUT EA_OUT VDD
+ EA_OUT OUT VDD EA_OUT EA_OUT EA_OUT VDD OUT EA_OUT VDD EA_OUT EA_OUT EA_OUT OUT
+ VDD OUT EA_OUT OUT VDD EA_OUT EA_OUT EA_OUT VDD sky130_fd_pr__pfet_01v8_KPD88M
Xsky130_fd_pr__pfet_01v8_KPD88M_0[7|3] VDD OUT OUT OUT VDD EA_OUT EA_OUT EA_OUT VDD
+ EA_OUT OUT VDD EA_OUT EA_OUT EA_OUT VDD OUT EA_OUT VDD EA_OUT EA_OUT EA_OUT OUT
+ VDD OUT EA_OUT OUT VDD EA_OUT EA_OUT EA_OUT VDD sky130_fd_pr__pfet_01v8_KPD88M
Xsky130_fd_pr__pfet_01v8_KPD88M_0[8|3] VDD OUT OUT OUT VDD EA_OUT EA_OUT EA_OUT VDD
+ EA_OUT OUT VDD EA_OUT EA_OUT EA_OUT VDD OUT EA_OUT VDD EA_OUT EA_OUT EA_OUT OUT
+ VDD OUT EA_OUT OUT VDD EA_OUT EA_OUT EA_OUT VDD sky130_fd_pr__pfet_01v8_KPD88M
Xsky130_fd_pr__pfet_01v8_KPD88M_0[9|3] VDD OUT OUT OUT VDD EA_OUT EA_OUT EA_OUT VDD
+ EA_OUT OUT VDD EA_OUT EA_OUT EA_OUT VDD OUT EA_OUT VDD EA_OUT EA_OUT EA_OUT OUT
+ VDD OUT EA_OUT OUT VDD EA_OUT EA_OUT EA_OUT VDD sky130_fd_pr__pfet_01v8_KPD88M
Xsky130_fd_pr__pfet_01v8_KPD88M_0[10|3] VDD OUT OUT OUT VDD EA_OUT EA_OUT EA_OUT VDD
+ EA_OUT OUT VDD EA_OUT EA_OUT EA_OUT VDD OUT EA_OUT VDD EA_OUT EA_OUT EA_OUT OUT
+ VDD OUT EA_OUT OUT VDD EA_OUT EA_OUT EA_OUT VDD sky130_fd_pr__pfet_01v8_KPD88M
Xsky130_fd_pr__pfet_01v8_KPD88M_0[11|3] VDD OUT OUT OUT VDD EA_OUT EA_OUT EA_OUT VDD
+ EA_OUT OUT VDD EA_OUT EA_OUT EA_OUT VDD OUT EA_OUT VDD EA_OUT EA_OUT EA_OUT OUT
+ VDD OUT EA_OUT OUT VDD EA_OUT EA_OUT EA_OUT VDD sky130_fd_pr__pfet_01v8_KPD88M
Xsky130_fd_pr__pfet_01v8_KPD88M_0[12|3] VDD OUT OUT OUT VDD EA_OUT EA_OUT EA_OUT VDD
+ EA_OUT OUT VDD EA_OUT EA_OUT EA_OUT VDD OUT EA_OUT VDD EA_OUT EA_OUT EA_OUT OUT
+ VDD OUT EA_OUT OUT VDD EA_OUT EA_OUT EA_OUT VDD sky130_fd_pr__pfet_01v8_KPD88M
Xsky130_fd_pr__pfet_01v8_KPD88M_0[13|3] VDD OUT OUT OUT VDD EA_OUT EA_OUT EA_OUT VDD
+ EA_OUT OUT VDD EA_OUT EA_OUT EA_OUT VDD OUT EA_OUT VDD EA_OUT EA_OUT EA_OUT OUT
+ VDD OUT EA_OUT OUT VDD EA_OUT EA_OUT EA_OUT VDD sky130_fd_pr__pfet_01v8_KPD88M
Xsky130_fd_pr__pfet_01v8_KPD88M_0[14|3] VDD OUT OUT OUT VDD EA_OUT EA_OUT EA_OUT VDD
+ EA_OUT OUT VDD EA_OUT EA_OUT EA_OUT VDD OUT EA_OUT VDD EA_OUT EA_OUT EA_OUT OUT
+ VDD OUT EA_OUT OUT VDD EA_OUT EA_OUT EA_OUT VDD sky130_fd_pr__pfet_01v8_KPD88M
Xsky130_fd_pr__pfet_01v8_KPD88M_0[15|3] VDD OUT OUT OUT VDD EA_OUT EA_OUT EA_OUT VDD
+ EA_OUT OUT VDD EA_OUT EA_OUT EA_OUT VDD OUT EA_OUT VDD EA_OUT EA_OUT EA_OUT OUT
+ VDD OUT EA_OUT OUT VDD EA_OUT EA_OUT EA_OUT VDD sky130_fd_pr__pfet_01v8_KPD88M
Xsky130_fd_pr__pfet_01v8_KPD88M_0[16|3] VDD OUT OUT OUT VDD EA_OUT EA_OUT EA_OUT VDD
+ EA_OUT OUT VDD EA_OUT EA_OUT EA_OUT VDD OUT EA_OUT VDD EA_OUT EA_OUT EA_OUT OUT
+ VDD OUT EA_OUT OUT VDD EA_OUT EA_OUT EA_OUT VDD sky130_fd_pr__pfet_01v8_KPD88M
Xsky130_fd_pr__pfet_01v8_KPD88M_0[17|3] VDD OUT OUT OUT VDD EA_OUT EA_OUT EA_OUT VDD
+ EA_OUT OUT VDD EA_OUT EA_OUT EA_OUT VDD OUT EA_OUT VDD EA_OUT EA_OUT EA_OUT OUT
+ VDD OUT EA_OUT OUT VDD EA_OUT EA_OUT EA_OUT VDD sky130_fd_pr__pfet_01v8_KPD88M
Xsky130_fd_pr__pfet_01v8_KPD88M_0[18|3] VDD OUT OUT OUT VDD EA_OUT EA_OUT EA_OUT VDD
+ EA_OUT OUT VDD EA_OUT EA_OUT EA_OUT VDD OUT EA_OUT VDD EA_OUT EA_OUT EA_OUT OUT
+ VDD OUT EA_OUT OUT VDD EA_OUT EA_OUT EA_OUT VDD sky130_fd_pr__pfet_01v8_KPD88M
Xsky130_fd_pr__pfet_01v8_KPD88M_0[19|3] VDD OUT OUT OUT VDD EA_OUT EA_OUT EA_OUT VDD
+ EA_OUT OUT VDD EA_OUT EA_OUT EA_OUT VDD OUT EA_OUT VDD EA_OUT EA_OUT EA_OUT OUT
+ VDD OUT EA_OUT OUT VDD EA_OUT EA_OUT EA_OUT VDD sky130_fd_pr__pfet_01v8_KPD88M
Xsky130_fd_pr__pfet_01v8_KPD88M_0[20|3] VDD OUT OUT OUT VDD EA_OUT EA_OUT EA_OUT VDD
+ EA_OUT OUT VDD EA_OUT EA_OUT EA_OUT VDD OUT EA_OUT VDD EA_OUT EA_OUT EA_OUT OUT